geometry optimzed in LAMMPS
_audit_creation_date              2020-11-30 
_audit_creation_method            'lammps2cif' 
_symmetry_space_group_name_H-M    'P1' 
_symmetry_Int_Tables_number       1 
_symmetry_cell_setting            triclinic 
loop_ 
_symmetry_equiv_pos_as_xyz 
  x,y,z 
_cell_length_a                    43.11993371 
_cell_length_b                    43.40801412756363 
_cell_length_c                    34.603753343536454 
_cell_angle_alpha                 89.9194550512139 
_cell_angle_beta                  90.22925199147633 
_cell_angle_gamma                 120.83062274018144 
loop_ 
_atom_site_label 
_atom_site_type_symbol 
_atom_site_fract_x 
_atom_site_fract_y 
_atom_site_fract_z 
_atom_site_charge 
C1          C  0.44397061  0.24200015  0.12352222     0.04400
C2          C  0.44245389  0.22619415  0.08765289    -0.11700
C3          C  0.44485308  0.19516694  0.08571342     0.01900
C4          C  0.44762519  0.17954475  0.12000538    -0.10300
C5          C  0.44978140  0.19540136  0.15597294     0.04400
C6          C  0.44796405  0.22675865  0.15755526    -0.09700
H7          H  0.44041406  0.23857068  0.06128384     0.10000
H8          H  0.44966029  0.15571125  0.11858017     0.07500
H9          H  0.45041159  0.23971803  0.18504944     0.07400
C10         C  0.28140529  0.87459999  0.37610389     0.04400
C11         C  0.26552542  0.85845665  0.34065124    -0.11700
C12         C  0.23516089  0.82379677  0.33946305     0.01900
C13         C  0.22028234  0.80528848  0.37397369    -0.10300
C14         C  0.23604357  0.82079822  0.40963552     0.04400
C15         C  0.26627113  0.85572576  0.41065704    -0.09700
H16         H  0.27778167  0.87222014  0.31381971     0.10000
H17         H  0.19749230  0.77806900  0.37298243     0.07500
H18         H  0.27887024  0.86758872  0.43812006     0.07400
C19         C  0.86400066  0.18543895  0.12571244     0.04400
C20         C  0.87921261  0.20303389  0.09077216    -0.11700
C21         C  0.90946595  0.23789538  0.09080453     0.01900
C22         C  0.92470467  0.25485637  0.12614559    -0.10300
C23         C  0.90982525  0.23737308  0.16124450     0.04400
C24         C  0.87950029  0.20253480  0.16090019    -0.09700
H25         H  0.86681783  0.19002571  0.06359393     0.10000
H26         H  0.94736362  0.28211723  0.12635392     0.07500
H27         H  0.86721557  0.18929101  0.18791779     0.07400
C28         C  0.70984948  0.82625535  0.37371334     0.04400
C29         C  0.70999443  0.84166482  0.33793878    -0.11700
C30         C  0.70591015  0.87166607  0.33605404     0.01900
C31         C  0.70216228  0.88662643  0.37022785    -0.10300
C32         C  0.70127892  0.87130908  0.40616692     0.04400
C33         C  0.70565396  0.84137496  0.40787090    -0.09700
H34         H  0.71198607  0.82950915  0.31137878     0.10000
H35         H  0.69820331  0.90934042  0.36872290     0.07500
H36         H  0.70462772  0.82921336  0.43549470     0.07400
C37         C  0.92408670  0.67568026  0.12456591     0.04400
C38         C  0.90927625  0.67581881  0.08831440    -0.11700
C39         C  0.87597010  0.67416895  0.08555987     0.01900
C40         C  0.85765576  0.67292270  0.11942437    -0.10300
C41         C  0.87143636  0.67186242  0.15587703     0.04400
C42         C  0.90504934  0.67395791  0.15834036    -0.09700
H43         H  0.92303385  0.67581828  0.06209966     0.10000
H44         H  0.83146482  0.67058085  0.11733945     0.07500
H45         H  0.91563107  0.67274487  0.18634943     0.07400
C46         C  0.23380984  0.40474192  0.37339369     0.04400
C47         C  0.24734168  0.40273571  0.33720963    -0.11700
C48         C  0.28067390  0.40444329  0.33441813     0.01900
C49         C  0.30000795  0.40740768  0.36829559    -0.10300
C50         C  0.28715719  0.40986968  0.40471707     0.04400
C51         C  0.25389279  0.40853960  0.40704831    -0.09700
H52         H  0.23210506  0.40023635  0.31122345     0.10000
H53         H  0.32570192  0.40877283  0.36621211     0.07500
H54         H  0.24380809  0.41085615  0.43490876     0.07400
O55         O  0.95257308  0.32257619  0.32743618    -0.77200
C56         C  0.97055714  0.32669980  0.45442437     0.83800
O57         O  0.94510005  0.42148677  0.37755901    -0.78300
O58         O  0.05207446  0.44374833  0.45354165    -0.79800
O59         O  0.08146559  0.39844681  0.34351983    -0.79600
O60         O  0.00255729  0.35485047  0.29274864    -0.78200
Zn61       Zn  0.95917576  0.35116473  0.37581139     1.55700
O62         O  0.08011262  0.39465749  0.40794238    -0.79600
Cd63       Cd  0.03430290  0.39791055  0.32907546     1.59700
Cd64       Cd  0.99888385  0.43676356  0.37769304     1.59600
O65         O  0.04974918  0.44505330  0.29931306    -0.79600
O66         O  0.00621386  0.39494188  0.37624500    -1.90100
Cd67       Cd  0.03451717  0.39658039  0.42286202     1.59900
O68         O  0.02308226  0.46975628  0.33123258    -0.79600
O69         O  0.00202237  0.35415176  0.45895312    -0.78200
C70         C  0.91698525  0.39037908  0.37708059     0.84300
C71         C  0.97091696  0.32753979  0.29682364     0.84000
O72         O  0.95253592  0.32162353  0.42338289    -0.77200
C73         C  0.09522714  0.39686255  0.37562739     0.84800
O74         O  0.91870823  0.36196897  0.37641255    -0.77300
C75         C  0.04286927  0.47009775  0.30386941     0.84900
C76         C  0.04399991  0.46813687  0.45141908     0.85200
O77         O  0.02285333  0.46803417  0.42562040    -0.79700
O78         O  0.19467999  0.73750862  0.07548124    -0.77200
C79         C  0.17683144  0.73514755  0.20328753     0.83800
O80         O  0.20462703  0.64190743  0.13085058    -0.78300
O81         O  0.09727035  0.61645086  0.20319814    -0.79800
O82         O  0.06870488  0.66672684  0.09382594    -0.79600
O83         O  0.14529129  0.70180120  0.04062050    -0.78200
Zn84       Zn  0.18845588  0.71062064  0.12519448     1.55700
O85         O  0.06872628  0.66626807  0.15835935    -0.79600
Cd86       Cd  0.11293861  0.66170467  0.07942408     1.59700
Cd87       Cd  0.15078531  0.62525315  0.12721000     1.59600
O88         O  0.09522944  0.61253519  0.05249761    -0.79600
O89         O  0.14209628  0.66611426  0.12619674    -1.90100
Cd90       Cd  0.11406810  0.66374083  0.17300769     1.59900
O91         O  0.12924304  0.59311339  0.07946219    -0.79600
O92         O  0.14629973  0.70672313  0.20865721    -0.78200
C93         C  0.23229144  0.67330043  0.13009835     0.84300
C94         C  0.17639079  0.72993550  0.04428797     0.84000
O95         O  0.19442404  0.74085500  0.17195150    -0.77200
C96         C  0.05499004  0.66762863  0.12616250     0.84800
O97         O  0.22968219  0.70115337  0.12756675    -0.77300
C98         C  0.10595034  0.59008048  0.05471800     0.84900
C99         C  0.10464485  0.59165811  0.19952297     0.85200
O100        O  0.12540836  0.59229248  0.17316757    -0.79700
O101        O  0.48279932  0.14853896  0.32258234    -0.77200
C102        C  0.46963440  0.13256499  0.45026993     0.83800
O103        O  0.59274262  0.16386902  0.37694126    -0.78300
O104        O  0.50932938  0.05524629  0.45150506    -0.79800
O105        O  0.43201994  0.02440310  0.34043468    -0.79600
O106        O  0.47177376  0.10087116  0.28748033    -0.78200
Zn107      Zn  0.50517654  0.14369946  0.37163902     1.55700
O108        O  0.43140453  0.02517724  0.40500727    -0.79600
Cd109      Cd  0.48082331  0.07018496  0.32649050     1.59700
Cd110      Cd  0.55590937  0.10916016  0.37598883     1.59600
O111        O  0.51367512  0.05492172  0.29954180    -0.79600
O112        O  0.50517422  0.09904569  0.37359779    -1.90100
Cd113      Cd  0.47879992  0.07123120  0.42046179     1.59900
O114        O  0.56652637  0.08549888  0.33011588    -0.79600
O115        O  0.46722184  0.10237808  0.45599043    -0.78200
C116        C  0.58757042  0.19020421  0.37448150     0.84300
C117        C  0.47326205  0.13080891  0.29113197     0.84000
O118        O  0.48142908  0.14961083  0.41859991    -0.77200
C119        C  0.41715988  0.01057564  0.37272603     0.84800
O120        O  0.55607931  0.18573603  0.37188052    -0.77300
C121        C  0.54660564  0.06368122  0.30383398     0.84900
C122        C  0.54229029  0.06377422  0.44930583     0.85200
O123        O  0.56353790  0.08552650  0.42388810    -0.79700
O124        O  0.66011705  0.91282791  0.07159389    -0.77200
C125        C  0.67708126  0.93010385  0.19959918     0.83800
O126        O  0.55263692  0.89965330  0.12956188    -0.78300
O127        O  0.63653839  0.00667613  0.20256487    -0.79800
O128        O  0.71318737  0.03694702  0.09080089    -0.79600
O129        O  0.67232596  0.96109315  0.03689967    -0.78200
Zn130      Zn  0.63985192  0.91869981  0.12174053     1.55700
O131        O  0.71460143  0.03607406  0.15542182    -0.79600
Cd132      Cd  0.66405547  0.99197609  0.07648013     1.59700
Cd133      Cd  0.58954814  0.95424121  0.12596163     1.59600
O134        O  0.63200200  0.00853857  0.04989174    -0.79600
O135        O  0.63993927  0.96340294  0.12365798    -1.90100
Cd136      Cd  0.66663848  0.99084075  0.17067876     1.59900
O137        O  0.57853007  0.97661583  0.07884400    -0.79600
O138        O  0.67843313  0.95970086  0.20571475    -0.78200
C139        C  0.55776843  0.87324845  0.12825105     0.84300
C140        C  0.67012935  0.93080077  0.04032008     0.84000
O141        O  0.66542486  0.91316523  0.16778415    -0.77200
C142        C  0.72860760  0.05033811  0.12306626     0.84800
O143        O  0.58903265  0.87740009  0.12477126    -0.77300
C144        C  0.59881295  0.99897554  0.05323246     0.84900
C145        C  0.60400980  0.99953772  0.19981000     0.85200
O146        O  0.58300244  0.97937085  0.17312472    -0.79700
C147        C  0.73694206  0.40038076  0.37411091     0.04400
C148        C  0.77154119  0.40482740  0.37515922    -0.11700
C149        C  0.77566502  0.37487576  0.37627409     0.01900
C150        C  0.74514079  0.34032000  0.37656879    -0.10300
C151        C  0.71040439  0.33548981  0.37568040     0.04400
C152        C  0.70642857  0.36561190  0.37432948    -0.09700
H153        H  0.79522326  0.43154457  0.37520783     0.10000
H154        H  0.74842652  0.31718833  0.37724755     0.07500
H155        H  0.67958875  0.36199728  0.37355769     0.07400
C156        C  0.41279659  0.66310082  0.13296498     0.04400
C157        C  0.44298134  0.69782906  0.13516122    -0.11700
C158        C  0.43840169  0.72746122  0.13738477     0.01900
C159        C  0.40364109  0.72227381  0.13800086    -0.10300
C160        C  0.37332464  0.68770698  0.13509645     0.04400
C161        C  0.37795836  0.65804207  0.13261788    -0.09700
H162        H  0.47000699  0.70182886  0.13455510     0.10000
H163        H  0.40020593  0.74529724  0.13952099     0.07500
H164        H  0.35469130  0.63127747  0.13020300     0.07400
O165        O  0.36900081  0.43914667  0.07001211    -0.77200
C166        C  0.36638544  0.42316423  0.19829002     0.83800
O167        O  0.46418748  0.54642176  0.12795250    -0.78300
O168        O  0.48534595  0.46484007  0.20548724    -0.79800
O169        O  0.44380250  0.38918825  0.09287264    -0.79600
O170        O  0.40558022  0.42697889  0.03651457    -0.78200
Zn171      Zn  0.39472935  0.45974596  0.12048066     1.55700
O172        O  0.43849959  0.38683014  0.15733924    -0.79600
Cd173      Cd  0.44562094  0.43642387  0.07718273     1.59700
Cd174      Cd  0.48137887  0.51008180  0.12690518     1.59600
O175        O  0.49535349  0.46986232  0.05121449    -0.79600
O176        O  0.43968560  0.45969176  0.12412309    -1.90100
Cd177      Cd  0.43926601  0.43348652  0.17205649     1.59900
O178        O  0.51637338  0.52220501  0.08125448    -0.79600
O179        O  0.39427169  0.42101074  0.20549686    -0.78200
C180        C  0.43250778  0.54145019  0.12541737     0.84300
C181        C  0.37728454  0.42930396  0.03902171     0.84000
O182        O  0.36233823  0.43486294  0.16599896    -0.77200
C183        C  0.44116132  0.37391003  0.12528039     0.84800
O184        O  0.40460590  0.51035576  0.12204989    -0.77300
C185        C  0.51912165  0.50302673  0.05525397     0.84900
C186        C  0.51070279  0.49756836  0.20291592     0.85200
O187        O  0.51189853  0.51777657  0.17557932    -0.79700
O188        O  0.78731461  0.63133941  0.32095849    -0.77200
C189        C  0.78631748  0.64436457  0.44932122     0.83800
O190        O  0.69097730  0.52141876  0.37611623    -0.78300
O191        O  0.66665556  0.60243957  0.45314866    -0.79800
O192        O  0.71188658  0.67916131  0.34069197    -0.79600
O193        O  0.74961669  0.64160229  0.28653515    -0.78200
Zn194      Zn  0.76015053  0.60807638  0.37047476     1.55700
O195        O  0.71416342  0.68027709  0.40531893    -0.79600
Cd196      Cd  0.70907019  0.63116509  0.32612509     1.59700
Cd197      Cd  0.67399215  0.55766958  0.37682824     1.59600
O198        O  0.65923428  0.59701839  0.29989817    -0.79600
O199        O  0.71503529  0.60810511  0.37347318    -1.90100
Cd200      Cd  0.71360826  0.63383230  0.42087107     1.59900
O201        O  0.63805010  0.54573360  0.33234322    -0.79600
O202        O  0.75841053  0.64679867  0.45511699    -0.78200
C203        C  0.72241317  0.52598604  0.37288947     0.84300
C204        C  0.77885174  0.64110247  0.28983636     0.84000
O205        O  0.79083783  0.63186026  0.41787003    -0.77200
C206        C  0.71324199  0.69399726  0.37301176     0.84800
O207        O  0.75045816  0.55711826  0.36995062    -0.77300
C208        C  0.63520501  0.56413345  0.30544596     0.84900
C209        C  0.64265269  0.56914995  0.45120332     0.85200
O210        O  0.64389470  0.54882613  0.42562855    -0.79700
C211        C  0.60255190  0.54649118  0.28025174    -0.04000
C212        C  0.58308601  0.56384255  0.27207489    -0.01200
C213        C  0.55228930  0.54721451  0.24798092     0.03800
C214        C  0.54050022  0.51298906  0.23186794    -0.04000
C215        C  0.55909043  0.49498792  0.24126638    -0.01100
C216        C  0.58994529  0.51163617  0.26534470     0.03800
C217        C  0.59389323  0.59831693  0.28956347     0.38500
C218        C  0.54758119  0.45998581  0.22476402     0.38500
C219        C  0.60942686  0.49324601  0.27356958     0.36900
C220        C  0.53223240  0.56513274  0.24049800     0.36900
N221        N  0.62491847  0.47857008  0.28023434    -0.37900
N222        N  0.51630024  0.57947858  0.23455674    -0.37900
N223        N  0.53844882  0.43208154  0.21163615    -0.37400
N224        N  0.60241636  0.62574120  0.30359567    -0.37400
C225        C  0.55091471  0.52001424  0.02883840    -0.04000
C226        C  0.58592460  0.54459704  0.04332429    -0.01200
C227        C  0.61587663  0.56116638  0.01810914     0.03800
C228        C  0.61126646  0.55317581  0.47816827    -0.04000
C229        C  0.57619314  0.52881222  0.46370403    -0.01100
C230        C  0.54635982  0.51218590  0.48885236     0.03800
C231        C  0.59159658  0.55177306  0.08451540     0.38500
C232        C  0.57027896  0.52158301  0.42249575     0.38500
C233        C  0.51077046  0.48758150  0.47305912     0.36900
C234        C  0.65161172  0.58549531  0.03365687     0.36900
N235        N  0.48253980  0.46781222  0.46029158    -0.37900
N236        N  0.68007073  0.60491541  0.04614672    -0.37900
N237        N  0.56552878  0.51577629  0.38969367    -0.37400
N238        N  0.59610871  0.55742044  0.11736268    -0.37400
C239        C  0.41776277  0.63187286  0.13086162    -0.04000
C240        C  0.41824703  0.61716414  0.09468546    -0.01200
C241        C  0.42335464  0.58762366  0.09282329     0.03800
C242        C  0.42780775  0.57271488  0.12713814    -0.04000
C243        C  0.42723855  0.58736451  0.16329013    -0.01100
C244        C  0.42234340  0.61700535  0.16514190     0.03800
C245        C  0.41365255  0.63257261  0.05945797     0.38500
C246        C  0.43106004  0.57149780  0.19858072     0.38500
C247        C  0.42177228  0.63213926  0.20229564     0.36900
C248        C  0.42438790  0.57276138  0.05565811     0.36900
N249        N  0.42132362  0.64430659  0.23187487    -0.37900
N250        N  0.42529919  0.56097107  0.02600032    -0.37900
N251        N  0.43388358  0.55866716  0.22670531    -0.37400
N252        N  0.40994427  0.64486841  0.03137898    -0.37400
C253        C  0.73278455  0.43235380  0.37342929    -0.04000
C254        C  0.74604731  0.45647627  0.34192081    -0.01200
C255        C  0.74297669  0.48730497  0.34185425     0.03800
C256        C  0.72627277  0.49400436  0.37307324    -0.04000
C257        C  0.71256563  0.46966899  0.40431954    -0.01100
C258        C  0.71605723  0.43911316  0.40464270     0.03800
C259        C  0.76205597  0.44914964  0.30904037     0.38500
C260        C  0.69570944  0.47658886  0.43673569     0.38500
C261        C  0.70334442  0.41516938  0.43769157     0.36900
C262        C  0.75588938  0.51147336  0.30899686     0.36900
N263        N  0.69322341  0.39605318  0.46402713    -0.37900
N264        N  0.76615938  0.53069574  0.28275538    -0.37900
N265        N  0.68223875  0.48215129  0.46250847    -0.37400
N266        N  0.77482994  0.44342954  0.28272724    -0.37400
C267        C  0.52667066  0.83631776  0.13064905    -0.04000
C268        C  0.51629361  0.81388580  0.09784904    -0.01200
C269        C  0.48791915  0.77799844  0.10037203     0.03800
C270        C  0.46983150  0.76440197  0.13575428    -0.04000
C271        C  0.48033019  0.78671783  0.16868407    -0.01100
C272        C  0.50881932  0.82266460  0.16615874     0.03800
C273        C  0.53443401  0.82789509  0.06127061     0.38500
C274        C  0.46219064  0.77242457  0.20523502     0.38500
C275        C  0.52053921  0.84523791  0.20031924     0.36900
C276        C  0.47682153  0.75520049  0.06635092     0.35700
N277        N  0.53000563  0.86312536  0.22766662    -0.37900
N278        N  0.46794131  0.73693799  0.03930170    -0.37900
N279        N  0.44769338  0.76090012  0.23435373    -0.37400
N280        N  0.54874139  0.83888064  0.03197583    -0.37400
C281        C  0.61896413  0.22728776  0.37478515    -0.04000
C282        C  0.62564986  0.24999208  0.34270869    -0.01200
C283        C  0.65524454  0.28551616  0.34317335     0.03800
C284        C  0.67822544  0.29860213  0.37582148    -0.04000
C285        C  0.67105796  0.27605537  0.40820398    -0.01100
C286        C  0.64161538  0.24045609  0.40760316     0.03800
C287        C  0.60263958  0.23645164  0.30873654     0.38500
C288        C  0.69340908  0.28980290  0.44260050     0.38500
C289        C  0.63391435  0.21769489  0.44125514     0.36900
C290        C  0.66252488  0.30834604  0.30966807     0.36900
N291        N  0.62766761  0.19952573  0.46809649    -0.37900
N292        N  0.66833277  0.32663739  0.28301989    -0.37900
N293        N  0.71115108  0.30076377  0.47009335    -0.37400
N294        N  0.58431204  0.22562687  0.28163667    -0.37400
C295        C  0.55624921  0.04690316  0.47613499    -0.04000
C296        C  0.55020260  0.04599166  0.01633154    -0.01200
C297        C  0.56381145  0.03004120  0.04152113     0.03800
C298        C  0.58349841  0.01477774  0.02667971    -0.04000
C299        C  0.58919634  0.01538938  0.48643133    -0.01100
C300        C  0.57552270  0.03121799  0.46127806     0.03800
C301        C  0.53104563  0.06255877  0.03199786     0.38500
C302        C  0.60829682  0.99881828  0.47060392     0.38500
C303        C  0.58016138  0.03006873  0.41983932     0.36900
C304        C  0.55880723  0.03074071  0.08291023     0.36900
N305        N  0.58376122  0.02909429  0.38681675    -0.37900
N306        N  0.55487530  0.03135745  0.11591181    -0.37900
N307        N  0.62357297  0.98570603  0.45787235    -0.37400
N308        N  0.51576585  0.07577724  0.04445888    -0.37400
C309        C  0.56188329  0.04723295  0.27800334    -0.04000
C310        C  0.59784047  0.06759547  0.26436769    -0.01200
C311        C  0.61185050  0.05187432  0.23954648     0.03800
C312        C  0.59011814  0.01557871  0.22797518    -0.04000
C313        C  0.55452443  0.99499597  0.24243868    -0.01100
C314        C  0.54059127  0.01062235  0.26739107     0.03800
C315        C  0.62038525  0.10515099  0.27483429     0.38500
C316        C  0.53227184  0.95723855  0.23265371     0.38500
C317        C  0.50464648  0.98832403  0.28333634     0.36900
C318        C  0.64835125  0.07369883  0.22486875     0.36900
N319        N  0.47603576  0.97054941  0.29609273    -0.37900
N320        N  0.67748916  0.09108557  0.21329708    -0.37900
N321        N  0.51433156  0.92716079  0.22489759    -0.37400
N322        N  0.63853031  0.13505762  0.28322046    -0.37400
C323        C  0.26849319  0.67736240  0.13176363    -0.04000
C324        C  0.27747818  0.66155765  0.16221300    -0.01200
C325        C  0.31159814  0.66452810  0.16311793     0.03800
C326        C  0.33678616  0.68308821  0.13343585    -0.04000
C327        C  0.32769771  0.69871914  0.10288853    -0.01100
C328        C  0.29385003  0.69625946  0.10232850     0.03800
C329        C  0.25219863  0.64354129  0.19351696     0.38500
C330        C  0.35292907  0.71672078  0.07150933     0.38500
C331        C  0.28493622  0.71266849  0.07098823     0.36900
C332        C  0.32119863  0.64940571  0.19518935     0.36900
N333        N  0.27801209  0.72599294  0.04609955    -0.37900
N334        N  0.32895721  0.63736497  0.22069335    -0.37900
N335        N  0.37310462  0.73107124  0.04655546    -0.37400
N336        N  0.23210207  0.62931169  0.21856441    -0.37400
C337        C  0.88120167  0.38714938  0.37704487    -0.04000
C338        C  0.86263183  0.38226305  0.41210382    -0.01200
C339        C  0.82813787  0.37847185  0.41190340     0.03800
C340        C  0.81221004  0.37963628  0.37665242    -0.04000
C341        C  0.83099883  0.38499972  0.34165876    -0.01100
C342        C  0.86554788  0.38895678  0.34188074     0.03800
C343        C  0.87926159  0.38165792  0.44839478     0.38500
C344        C  0.81446864  0.38584804  0.30539052     0.38500
C345        C  0.88503103  0.39486879  0.30594444     0.36900
C346        C  0.80907181  0.37359522  0.44793372     0.36900
N347        N  0.90064120  0.39969488  0.27730454    -0.37900
N348        N  0.79386874  0.36977802  0.47666703    -0.37900
N349        N  0.80119053  0.38636605  0.27646009    -0.37400
N350        N  0.89254457  0.38130071  0.47738890    -0.37400
C351        C  0.09025221  0.55874348  0.02843428    -0.04000
C352        C  0.05251471  0.53485529  0.02758703    -0.01200
C353        C  0.03743754  0.50480664  0.50287348     0.03800
C354        C  0.06004361  0.49815024  0.47934221    -0.04000
C355        C  0.09786448  0.52135130  0.48106313    -0.01100
C356        C  0.11294907  0.55164184  0.00549493     0.03800
C357        C  0.02931347  0.54028875  0.05344817     0.38500
C358        C  0.12118819  0.51473524  0.45670739     0.38500
C359        C  0.15177212  0.57602081  0.00619180     0.36900
C360        C  0.99867396  0.48011941  0.50244136     0.36900
N361        N  0.18273530  0.59543218  0.00672690    -0.37900
N362        N  0.96777691  0.46036719  0.50213226    -0.37900
N363        N  0.13972705  0.50939095  0.43727877    -0.37400
N364        N  0.01092639  0.54454364  0.07432128    -0.37400
C365        C  0.05882140  0.50113476  0.27704737    -0.04000
C366        C  0.05796041  0.49573426  0.23670646    -0.01200
C367        C  0.07244074  0.52532949  0.21141025     0.03800
C368        C  0.08836211  0.56063079  0.22626062    -0.04000
C369        C  0.08955715  0.56607585  0.26657131    -0.01100
C370        C  0.07483799  0.53647887  0.29187496     0.03800
C371        C  0.04133146  0.45968214  0.22097825     0.38500
C372        C  0.10730617  0.60221918  0.28221316     0.38500
C373        C  0.07762520  0.54265783  0.33332978     0.36900
C374        C  0.06986377  0.51924544  0.16993329     0.36900
N375        N  0.07985293  0.54755637  0.36636320    -0.37900
N376        N  0.06782026  0.51443504  0.13688734    -0.37900
N377        N  0.12153024  0.63102871  0.29468863    -0.37400
N378        N  0.02821067  0.43097521  0.20838347    -0.37400
C379        C  0.19849216  0.40311551  0.37565385    -0.04000
C380        C  0.16681766  0.37068478  0.38553153    -0.01200
C381        C  0.13306211  0.36869624  0.38603893     0.03800
C382        C  0.13060759  0.39879953  0.37549632    -0.04000
C383        C  0.16225867  0.43123407  0.36558871    -0.01100
C384        C  0.19616091  0.43358878  0.36647406     0.03800
C385        C  0.16889791  0.33915120  0.39445198     0.38500
C386        C  0.15998087  0.46240565  0.35508125     0.38500
C387        C  0.22876589  0.46772375  0.35923173     0.36900
C388        C  0.10067166  0.33540848  0.39646634     0.36900
N389        N  0.25464858  0.49524216  0.35407309    -0.37900
N390        N  0.07478445  0.30887551  0.40478178    -0.37900
N391        N  0.15808103  0.48718572  0.34657043    -0.37400
N392        N  0.17052542  0.31393125  0.40138845    -0.37400
C393        C  0.35446772  0.42301934  0.00424196    -0.04000
C394        C  0.31824735  0.39448211  0.00306725    -0.01200
C395        C  0.29606710  0.39019546  0.47083769     0.03800
C396        C  0.30968106  0.41506873  0.43993360    -0.04000
C397        C  0.34567267  0.44438649  0.44194811    -0.01100
C398        C  0.36807703  0.44792339  0.47354629     0.03800
C399        C  0.30395849  0.36922775  0.03488743     0.38500
C400        C  0.35933824  0.47186211  0.41223034     0.38500
C401        C  0.40489068  0.47811402  0.47516750     0.36900
C402        C  0.25945832  0.35976449  0.46930629     0.36900
N403        N  0.43421981  0.50221055  0.47646095    -0.37900
N404        N  0.23021743  0.33549822  0.46828545    -0.37900
N405        N  0.37016931  0.49380302  0.38858553    -0.37400
N406        N  0.29257411  0.34912343  0.06032174    -0.37400
C407        C  0.33935678  0.41471119  0.22947838    -0.04000
C408        C  0.32745091  0.43901601  0.23742338    -0.01200
C409        C  0.30670588  0.43461199  0.27063690     0.03800
C410        C  0.29715571  0.40564838  0.29611926    -0.04000
C411        C  0.30658473  0.37981548  0.28659025    -0.01100
C412        C  0.32774465  0.38440675  0.25356091     0.03800
C413        C  0.33828526  0.47003820  0.21282289     0.38500
C414        C  0.29451007  0.34847696  0.31092904     0.38500
C415        C  0.33723730  0.35770537  0.24421808     0.36900
C416        C  0.29710578  0.46131885  0.27950489     0.36900
N417        N  0.34468078  0.33629730  0.23680063    -0.37900
N418        N  0.28969530  0.48290814  0.28592441    -0.37900
N419        N  0.28478864  0.32350721  0.33040982    -0.37400
N420        N  0.34672447  0.49471456  0.19323426    -0.37400
C421        C  0.02181944  0.67014352  0.12651045    -0.04000
C422        C  0.99006545  0.64314732  0.14452440    -0.01200
C423        C  0.95826564  0.64498175  0.14405667     0.03800
C424        C  0.95818155  0.67449349  0.12664984    -0.04000
C425        C  0.99035206  0.70202255  0.10963150    -0.01100
C426        C  0.02184182  0.69963639  0.10919814     0.03800
C427        C  0.98978924  0.61282163  0.16261826     0.38500
C428        C  0.99133309  0.73328025  0.09320559     0.38500
C429        C  0.05466065  0.72815151  0.09188792     0.36900
C430        C  0.92523774  0.61565445  0.16016493     0.36900
N431        N  0.08083941  0.75093477  0.07810513    -0.37900
N432        N  0.89886427  0.59227951  0.17298073    -0.37900
N433        N  0.99212326  0.75822034  0.08011165    -0.37400
N434        N  0.98966175  0.58872030  0.17713618    -0.37400
C435        C  0.84830554  0.66428522  0.19081885    -0.04000
C436        C  0.81446506  0.63194624  0.19291506    -0.01200
C437        C  0.79161758  0.62500136  0.22488888     0.03800
C438        C  0.80262176  0.64981255  0.25562155    -0.04000
C439        C  0.83652775  0.68189492  0.25394615    -0.01100
C440        C  0.85922601  0.68924590  0.22153088     0.03800
C441        C  0.80340126  0.60528118  0.16249243     0.38500
C442        C  0.84759382  0.70770338  0.28517599     0.38500
C443        C  0.89336138  0.72288212  0.21933498     0.36900
C444        C  0.75686311  0.59188061  0.22646452     0.36900
N445        N  0.92059831  0.74974359  0.21755280    -0.37900
N446        N  0.72912624  0.56551012  0.22768045    -0.37900
N447        N  0.85632418  0.72830899  0.31008878    -0.37400
N448        N  0.79468776  0.58416734  0.13811205    -0.37400
C449        C  0.85759484  0.66923745  0.04751392    -0.04000
C450        C  0.84613269  0.63750353  0.02599094    -0.01200
C451        C  0.82439368  0.63031060  0.99275043     0.03800
C452        C  0.81330794  0.65450041  0.48105812    -0.04000
C453        C  0.82608850  0.68696566  0.50163087    -0.01100
C454        C  0.84830265  0.69437449  0.03456725     0.03800
C455        C  0.85483934  0.61108182  0.03934352     0.38500
C456        C  0.81661013  0.71293030  0.48875975     0.38500
C457        C  0.86151233  0.72785734  0.05533644     0.36900
C458        C  0.81168787  0.59682648  0.97204567     0.36900
N459        N  0.87209576  0.75456591  0.07192478    -0.37900
N460        N  0.80161138  0.57015203  0.95553977    -0.37900
N461        N  0.80904375  0.73363112  0.47845992    -0.37400
N462        N  0.86177538  0.59004235  0.05007334    -0.37400
C463        C  0.71144440  0.79266636  0.37480546    -0.04000
C464        C  0.68221518  0.76063987  0.38995357    -0.01200
C465        C  0.68312808  0.72859175  0.38969642     0.03800
C466        C  0.71273101  0.72793918  0.37331526    -0.04000
C467        C  0.74165874  0.75967085  0.35758303    -0.01100
C468        C  0.74130888  0.79203334  0.35887563     0.03800
C469        C  0.65045133  0.76021079  0.40442116     0.38500
C470        C  0.77207070  0.75912721  0.34057628     0.38500
C471        C  0.77207473  0.82488020  0.34449591     0.36900
C472        C  0.65290755  0.69584041  0.40508565     0.36900
N473        N  0.79659864  0.85112903  0.33308531    -0.37900
N474        N  0.62884654  0.66966818  0.41729192    -0.37900
N475        N  0.79626833  0.75865399  0.32688719    -0.37400
N476        N  0.62511600  0.75989724  0.41589533    -0.37400
C477        C  0.67818479  0.91534774  0.00644265    -0.04000
C478        C  0.65303131  0.90063132  0.47582183    -0.01200
C479        C  0.66001607  0.88503740  0.44385186     0.03800
C480        C  0.69296328  0.88536045  0.44149029    -0.04000
C481        C  0.71831118  0.90052428  0.47201459    -0.01100
C482        C  0.71063855  0.91492842  0.00469617     0.03800
C483        C  0.61987380  0.90154598  0.47717735     0.38500
C484        C  0.75291166  0.90270345  0.46907522     0.38500
C485        C  0.73654947  0.93028547  0.03610980     0.36900
C486        C  0.63299871  0.86824248  0.41355939     0.36900
N487        N  0.75713167  0.94258369  0.06125566    -0.37900
N488        N  0.61155256  0.85490035  0.38933060    -0.37900
N489        N  0.78060407  0.90461949  0.46659073    -0.37400
N490        N  0.59353052  0.90246332  0.47797962    -0.37400
C491        C  0.70135536  0.88533614  0.29832013    -0.04000
C492        C  0.67061232  0.86353920  0.27528376    -0.01200
C493        C  0.66368477  0.87769360  0.24188413     0.03800
C494        C  0.68730213  0.91396050  0.23141142    -0.04000
C495        C  0.71877379  0.93536292  0.25369871    -0.01100
C496        C  0.72572091  0.92110318  0.28706317     0.03800
C497        C  0.64470066  0.82716860  0.28735172     0.38500
C498        C  0.74411515  0.97208389  0.24229068     0.38500
C499        C  0.75767362  0.94343505  0.31024465     0.36900
C500        C  0.63082600  0.85542365  0.21989647     0.36900
N501        N  0.78304231  0.96126339  0.32888110    -0.37900
N502        N  0.60461302  0.83765702  0.20243339    -0.37900
N503        N  0.76431164  0.00136380  0.23317789    -0.37400
N504        N  0.62404190  0.79822923  0.29709500    -0.37400
C505        C  0.82949573  0.15055740  0.12534573    -0.04000
C506        C  0.79648952  0.15001172  0.12394458    -0.01200
C507        C  0.76353478  0.11709339  0.12283568     0.03800
C508        C  0.76339869  0.08456624  0.12320594    -0.04000
C509        C  0.79628812  0.08495245  0.12491492    -0.01100
C510        C  0.82936447  0.11796911  0.12598245     0.03800
C511        C  0.79633338  0.18333153  0.12402362     0.38500
C512        C  0.79597020  0.05137805  0.12554280     0.38500
C513        C  0.86322055  0.11848311  0.12788724     0.36900
C514        C  0.72963261  0.11661970  0.12167182     0.36900
N515        N  0.89024436  0.11889579  0.12948977    -0.37900
N516        N  0.70257701  0.11618202  0.12076567    -0.37900
N517        N  0.79558021  0.02452047  0.12602256    -0.37400
N518        N  0.79577791  0.20969474  0.12418459    -0.37400
C519        C  0.92420734  0.25730003  0.19817668    -0.04000
C520        C  0.95920835  0.26716754  0.21110036    -0.01200
C521        C  0.97421396  0.28929312  0.24397364     0.03800
C522        C  0.95423589  0.30163798  0.26427241    -0.04000
C523        C  0.91858292  0.29048641  0.25212277    -0.01100
C524        C  0.90376378  0.26857306  0.21916855     0.03800
C525        C  0.97969593  0.25429153  0.19069689     0.38500
C526        C  0.89753448  0.30293275  0.27225003     0.38500
C527        C  0.86795971  0.25902297  0.20588269     0.36900
C528        C  0.00997893  0.29875692  0.25729792     0.36900
N529        N  0.83940641  0.25160105  0.19552606    -0.37900
N530        N  0.03848397  0.30626757  0.26797754    -0.37900
N531        N  0.88061546  0.31270235  0.28824929    -0.37400
N532        N  0.99606981  0.24395041  0.17460006    -0.37400
C533        C  0.92407733  0.25786614  0.05395925    -0.04000
C534        C  0.95994791  0.26960838  0.04294026    -0.01200
C535        C  0.97491250  0.29128146  0.00988080     0.03800
C536        C  0.95386431  0.30086095  0.48699054    -0.04000
C537        C  0.91727710  0.28745622  0.49698126    -0.01100
C538        C  0.90272333  0.26663940  0.03064795     0.03800
C539        C  0.98146366  0.25910887  0.06549651     0.38500
C540        C  0.89467182  0.29607990  0.47363272     0.38500
C541        C  0.86623202  0.25588930  0.04222202     0.36900
C542        C  0.01190098  0.30321603  0.49920544     0.36900
N543        N  0.83714648  0.24767361  0.05108113    -0.37900
N544        N  0.04144270  0.31281062  0.49080767    -0.37900
N545        N  0.87639565  0.30252570  0.45493010    -0.37400
N546        N  0.99868399  0.25071002  0.08333901    -0.37400
C547        C  0.31591514  0.90988643  0.37637285    -0.04000
C548        C  0.34764562  0.91266851  0.39194623    -0.01200
C549        C  0.38056197  0.94574685  0.39114768     0.03800
C550        C  0.38247540  0.97588903  0.37313288    -0.04000
C551        C  0.35116886  0.97287683  0.35631665    -0.01100
C552        C  0.31780212  0.94028812  0.35886523     0.03800
C553        C  0.34687340  0.88113347  0.40727729     0.38500
C554        C  0.35321459  0.00344893  0.33675480     0.38500
C555        C  0.28523804  0.93830071  0.34425173     0.36900
C556        C  0.41285854  0.94844204  0.40770225     0.36900
N557        N  0.25921305  0.93670611  0.33274911    -0.37900
N558        N  0.43861749  0.95064195  0.42092631    -0.37900
N559        N  0.35495448  0.02776609  0.32086828    -0.37400
N560        N  0.34619353  0.85590867  0.41932854    -0.37400
C561        C  0.22250259  0.79880485  0.44540602    -0.04000
C562        C  0.20631121  0.80812087  0.47500273    -0.01200
C563        C  0.19177560  0.78592274  0.00780718     0.03800
C564        C  0.19248716  0.75388678  0.01063988    -0.04000
C565        C  0.20900851  0.74473100  0.48135793    -0.01100
C566        C  0.22462389  0.76747377  0.44923071     0.03800
C567        C  0.20372057  0.83999439  0.47122519     0.38500
C568        C  0.20996268  0.71185866  0.48433655     0.38500
C569        C  0.24360479  0.75904117  0.42048107     0.36900
C570        C  0.17566791  0.79575908  0.03846767     0.36900
N571        N  0.25890053  0.75249769  0.39759664    -0.37900
N572        N  0.16300024  0.80370528  0.06305267    -0.37900
N573        N  0.21059906  0.68558343  0.98663177    -0.37400
N574        N  0.20162502  0.86541941  0.46818224    -0.37400
C575        C  0.19312512  0.76142911  0.23534427    -0.04000
C576        C  0.22879925  0.77307621  0.24770772    -0.01200
C577        C  0.24292312  0.79461180  0.28097194     0.03800
C578        C  0.22158539  0.80473342  0.30208336    -0.04000
C579        C  0.18656031  0.79441690  0.28890321    -0.01100
C580        C  0.17238802  0.77291154  0.25554332     0.03800
C581        C  0.25040096  0.76125179  0.22764474     0.38500
C582        C  0.16510767  0.80589084  0.30978611     0.38500
C583        C  0.13663914  0.76300123  0.24169877     0.36900
C584        C  0.27885956  0.80488216  0.29462133     0.36900
N585        N  0.10818046  0.75515290  0.23051979    -0.37900
N586        N  0.30748501  0.81318555  0.30564174    -0.37900
N587        N  0.14801313  0.81505284  0.32647069    -0.37400
N588        N  0.26767479  0.75185038  0.21173761    -0.37400
C589        C  0.44190398  0.34020232  0.12581558    -0.04000
C590        C  0.40997950  0.30709116  0.13270772    -0.01200
C591        C  0.41059033  0.27489437  0.13185273     0.03800
C592        C  0.44334004  0.27582799  0.12526237    -0.04000
C593        C  0.47561146  0.30911737  0.12050009    -0.01100
C594        C  0.47481765  0.34119982  0.12016407     0.03800
C595        C  0.37653612  0.30622615  0.14059514     0.38500
C596        C  0.50978321  0.31040539  0.11725191     0.38500
C597        C  0.50804105  0.37535801  0.11508316     0.36900
C598        C  0.37757220  0.24077196  0.13776355     0.36900
N599        N  0.53457523  0.40259021  0.11114009    -0.37900
N600        N  0.35125269  0.21351019  0.14246480    -0.37900
N601        N  0.53713636  0.31154495  0.11527239    -0.37400
N602        N  0.34995634  0.30567675  0.14712420    -0.37400
C603        C  0.46654627  0.14693010  0.25685777    -0.04000
C604        C  0.49076771  0.15782346  0.22553763    -0.01200
C605        C  0.48620773  0.17517525  0.19353592     0.03800
C606        C  0.45613345  0.17995852  0.19154288    -0.04000
C607        C  0.43181926  0.16892967  0.22297172    -0.01100
C608        C  0.43749032  0.15313424  0.25589020     0.03800
C609        C  0.52099258  0.15187881  0.22662883     0.38500
C610        C  0.40043675  0.17290958  0.22109749     0.38500
C611        C  0.41298552  0.14249659  0.28840632     0.36900
C612        C  0.51326633  0.18918855  0.16325808     0.36900
N613        N  0.39349583  0.13408727  0.31440236    -0.37900
N614        N  0.53485791  0.20043419  0.13916137    -0.37900
N615        N  0.37542719  0.17613223  0.21958075    -0.37400
N616        N  0.54494764  0.14695382  0.22751221    -0.37400
C617        C  0.46069520  0.14951423  0.48224923    -0.04000
C618        C  0.48510926  0.18582693  0.99200499    -0.01200
C619        C  0.47867194  0.20132035  0.02444965     0.03800
C620        C  0.44819580  0.18053985  0.04803268    -0.04000
C621        C  0.42325855  0.14456117  0.03768447    -0.01100
C622        C  0.42930334  0.12921310  0.50473555     0.03800
C623        C  0.51836893  0.20675918  0.97038463     0.38500
C624        C  0.39155008  0.12313011  0.06129492     0.38500
C625        C  0.40303673  0.09257733  0.49385762     0.36900
C626        C  0.50474721  0.23820823  0.03461244     0.36900
N627        N  0.38205104  0.06338756  0.48510789    -0.37900
N628        N  0.52573510  0.26770558  0.04216831    -0.37900
N629        N  0.36640813  0.10598247  0.08030717    -0.37400
N630        N  0.54495809  0.22340029  0.95332747    -0.37400
C631        C  0.44396498  0.24199685  0.62352070     0.04400
C632        C  0.44244850  0.22619033  0.58765176    -0.11700
C633        C  0.44484829  0.19516341  0.58571321     0.01900
C634        C  0.44762067  0.17954187  0.62000547    -0.10300
C635        C  0.44977695  0.19539914  0.65597261     0.04400
C636        C  0.44795895  0.22675615  0.65755417    -0.09700
H637        H  0.44040908  0.23856654  0.56128233     0.10000
H638        H  0.44965634  0.15570881  0.61858077     0.07500
H639        H  0.45040657  0.23971603  0.68504813     0.07400
C640        C  0.28140728  0.87459989  0.87610459     0.04400
C641        C  0.26552877  0.85845646  0.84065152    -0.11700
C642        C  0.23516434  0.82379650  0.83946253     0.01900
C643        C  0.22028487  0.80528812  0.87397294    -0.10300
C644        C  0.23604470  0.82079795  0.90963511     0.04400
C645        C  0.26627189  0.85572571  0.91065752    -0.09700
H646        H  0.27778586  0.87222037  0.81381999     0.10000
H647        H  0.19749491  0.77806846  0.87298130     0.07500
H648        H  0.27886940  0.86758847  0.93812022     0.07400
C649        C  0.86399976  0.18543745  0.62571049     0.04400
C650        C  0.87921049  0.20303387  0.59077052    -0.11700
C651        C  0.90946325  0.23789574  0.59080350     0.01900
C652        C  0.92470240  0.25485570  0.62614484    -0.10300
C653        C  0.90982435  0.23737119  0.66124358     0.04400
C654        C  0.87950003  0.20253227  0.66089863    -0.09700
H655        H  0.86681534  0.19002650  0.56359222     0.10000
H656        H  0.94736132  0.28211725  0.62635356     0.07500
H657        H  0.86721642  0.18928745  0.68791564     0.07400
C658        C  0.70984565  0.82625298  0.87371391     0.04400
C659        C  0.70998983  0.84166177  0.83793911    -0.11700
C660        C  0.70590665  0.87166364  0.83605417     0.01900
C661        C  0.70216035  0.88662524  0.87022785    -0.10300
C662        C  0.70127714  0.87130817  0.90616708     0.04400
C663        C  0.70565121  0.84137349  0.90787134    -0.09700
H664        H  0.71198043  0.82950525  0.81137903     0.10000
H665        H  0.69820243  0.90933942  0.86872273     0.07500
H666        H  0.70462535  0.82921228  0.93549543     0.07400
C667        C  0.92408852  0.67568401  0.62456641     0.04400
C668        C  0.90927812  0.67582250  0.58831471    -0.11700
C669        C  0.87597216  0.67417316  0.58556001     0.01900
C670        C  0.85765791  0.67292731  0.61942451    -0.10300
C671        C  0.87143862  0.67186728  0.65587724     0.04400
C672        C  0.90505141  0.67396254  0.65834067    -0.09700
H673        H  0.92303540  0.67582145  0.56210031     0.10000
H674        H  0.83146732  0.67058554  0.61733961     0.07500
H675        H  0.91563324  0.67274980  0.68635014     0.07400
C676        C  0.23381737  0.40475231  0.87339436     0.04400
C677        C  0.24735074  0.40274868  0.83721031    -0.11700
C678        C  0.28068229  0.40445491  0.83441947     0.01900
C679        C  0.30001486  0.40741667  0.86829715    -0.10300
C680        C  0.28716336  0.40987763  0.90471851     0.04400
C681        C  0.25389908  0.40854787  0.90704944    -0.09700
H682        H  0.23211538  0.40025160  0.81122337     0.10000
H683        H  0.32570854  0.40878079  0.86621389     0.07500
H684        H  0.24381354  0.41086284  0.93490968     0.07400
O685        O  0.95257567  0.32257379  0.82743663    -0.77200
C686        C  0.97056070  0.32669772  0.95442473     0.83800
O687        O  0.94510075  0.42148337  0.87756099    -0.78300
O688        O  0.05207528  0.44374690  0.95354401    -0.79800
O689        O  0.08146847  0.39844743  0.84352084    -0.79600
O690        O  0.00255931  0.35484862  0.79274874    -0.78200
Zn691      Zn  0.95917811  0.35116240  0.87581196     1.55700
O692        O  0.08011627  0.39465938  0.90794355    -0.79600
Cd693      Cd  0.03430455  0.39790894  0.82907612     1.59700
Cd694      Cd  0.99888492  0.43676140  0.87769479     1.59600
O695        O  0.04974919  0.44505121  0.79931350    -0.79600
O696        O  0.00621577  0.39494020  0.87624607    -1.90100
Cd697      Cd  0.03451947  0.39657957  0.92286332     1.59900
O698        O  0.02308221  0.46975381  0.83123371    -0.79600
O699        O  0.00202574  0.35414991  0.95895371    -0.78200
C700        C  0.91698621  0.39037549  0.87708150     0.84300
C701        C  0.97091914  0.32753760  0.79682369     0.84000
O702        O  0.95253936  0.32162150  0.92338334    -0.77200
C703        C  0.09523083  0.39686469  0.87562854     0.84800
O704        O  0.91870969  0.36196565  0.87641287    -0.77300
C705        C  0.04286879  0.47009532  0.80387000     0.84900
C706        C  0.04400078  0.46813546  0.95142124     0.85200
O707        O  0.02285447  0.46803268  0.92562211    -0.79700
O708        O  0.19467804  0.73750769  0.57548101    -0.77200
C709        C  0.17683241  0.73514563  0.70328822     0.83800
O710        O  0.20462490  0.64190561  0.63084931    -0.78300
O711        O  0.09726947  0.61644841  0.70319844    -0.79800
O712        O  0.06870419  0.66672659  0.59382812    -0.79600
O713        O  0.14528939  0.70180009  0.54062045    -0.78200
Zn714      Zn  0.18845429  0.71061918  0.62519383     1.55700
O715        O  0.06872662  0.66626810  0.65836158    -0.79600
Cd716      Cd  0.11293707  0.66170372  0.57942470     1.59700
Cd717      Cd  0.15078337  0.62525129  0.62720960     1.59600
O718        O  0.09522720  0.61253423  0.55249808    -0.79600
O719        O  0.14209488  0.66611273  0.62619695    -1.90100
Cd720      Cd  0.11406780  0.66373917  0.67300887     1.59900
O721        O  0.12924149  0.59311260  0.57946131    -0.79600
O722        O  0.14630097  0.70672100  0.70865857    -0.78200
C723        C  0.23228921  0.67329860  0.63009603     0.84300
C724        C  0.17638881  0.72993454  0.54428777     0.84000
O725        O  0.19442394  0.74085340  0.67195138    -0.77200
C726        C  0.05499013  0.66762899  0.62616499     0.84800
O727        O  0.22968003  0.70115154  0.62756435    -0.77300
C728        C  0.10594851  0.59007982  0.55471763     0.84900
C729        C  0.10464343  0.59165531  0.69952260     0.85200
O730        O  0.12540650  0.59228964  0.67316670    -0.79700
O731        O  0.48279772  0.14853893  0.82258156    -0.77200
C732        C  0.46963451  0.13256608  0.95026933     0.83800
O733        O  0.59274225  0.16387232  0.87693990    -0.78300
O734        O  0.50933332  0.05525039  0.95150563    -0.79800
O735        O  0.43202058  0.02440363  0.84043661    -0.79600
O736        O  0.47177176  0.10087061  0.78748038    -0.78200
Zn737      Zn  0.50517557  0.14370032  0.87163812     1.55700
O738        O  0.43140663  0.02517850  0.90500923    -0.79600
Cd739      Cd  0.48082316  0.07018581  0.82649085     1.59700
Cd740      Cd  0.55591049  0.10916309  0.87598725     1.59600
O741        O  0.51367544  0.05492364  0.79954141    -0.79600
O742        O  0.50517480  0.09904733  0.87359743    -1.90100
Cd743      Cd  0.47880205  0.07123327  0.92046236     1.59900
O744        O  0.56652770  0.08550273  0.83011329    -0.79600
O745        O  0.46722382  0.10238013  0.95599078    -0.78200
C746        C  0.58756922  0.19020701  0.87448061     0.84300
C747        C  0.47325984  0.13080829  0.79113161     0.84000
O748        O  0.48142738  0.14961090  0.91859851    -0.77200
C749        C  0.41716128  0.01057645  0.87272835     0.84800
O750        O  0.55607777  0.18573802  0.87187983    -0.77300
C751        C  0.54660643  0.06368429  0.80383218     0.84900
C752        C  0.54229428  0.06377867  0.94930529     0.85200
O753        O  0.56354080  0.08553014  0.92388631    -0.79700
O754        O  0.66011563  0.91282618  0.57159421    -0.77200
C755        C  0.67707773  0.93010204  0.69959998     0.83800
O756        O  0.55263516  0.89965177  0.62956520    -0.78300
O757        O  0.63653845  0.00667786  0.70256337    -0.79800
O758        O  0.71318522  0.03694506  0.59079894    -0.79600
O759        O  0.67232263  0.96109040  0.53689914    -0.78200
Zn760      Zn  0.63984973  0.91869806  0.62174048     1.55700
O761        O  0.71460100  0.03607250  0.65541981    -0.79600
Cd762      Cd  0.66405280  0.99197385  0.57647957     1.59700
Cd763      Cd  0.58954638  0.95423939  0.62596283     1.59600
O764        O  0.63199828  0.00853538  0.54989190    -0.79600
O765        O  0.63993749  0.96340139  0.62365802    -1.90100
Cd766      Cd  0.66663746  0.99084022  0.67067807     1.59900
O767        O  0.57852664  0.97661135  0.57884440    -0.79600
O768        O  0.67843086  0.95969977  0.70571487    -0.78200
C769        C  0.55776639  0.87324684  0.62825219     0.84300
C770        C  0.67012702  0.93079851  0.54032000     0.84000
O771        O  0.66542110  0.91316302  0.66778519    -0.77200
C772        C  0.72860648  0.05033625  0.62306389     0.84800
O773        O  0.58903041  0.87739842  0.62477032    -0.77300
C774        C  0.59880892  0.99897118  0.55323268     0.84900
C775        C  0.60400977  0.99953932  0.69980876     0.85200
O776        O  0.58300190  0.97937123  0.67312450    -0.79700
C777        C  0.73694589  0.40038229  0.87410546     0.04400
C778        C  0.77154457  0.40482775  0.87515438    -0.11700
C779        C  0.77566709  0.37487528  0.87627017     0.01900
C780        C  0.74514204  0.34031997  0.87656522    -0.10300
C781        C  0.71040613  0.33549108  0.87567625     0.04400
C782        C  0.70643177  0.36561394  0.87432419    -0.09700
H783        H  0.79522701  0.43154430  0.87520315     0.10000
H784        H  0.74842674  0.31718783  0.87724494     0.07500
H785        H  0.67959203  0.36200024  0.87355215     0.07400
C786        C  0.41279395  0.66309997  0.63296135     0.04400
C787        C  0.44297850  0.69782800  0.63516109    -0.11700
C788        C  0.43839894  0.72746013  0.63738482     0.01900
C789        C  0.40363836  0.72227285  0.63799884    -0.10300
C790        C  0.37332217  0.68770619  0.63509201     0.04400
C791        C  0.37795585  0.65804143  0.63261197    -0.09700
H792        H  0.47000479  0.70182784  0.63455664     0.10000
H793        H  0.40020311  0.74529619  0.63951933     0.07500
H794        H  0.35468879  0.63127701  0.63019519     0.07400
O795        O  0.36899697  0.43914097  0.57000973    -0.77200
C796        C  0.36638909  0.42316987  0.69828922     0.83800
O797        O  0.46418319  0.54642040  0.62795496    -0.78300
O798        O  0.48534925  0.46484213  0.70548236    -0.79800
O799        O  0.44380149  0.38918776  0.59286955    -0.79600
O800        O  0.40557946  0.42697835  0.53651095    -0.78200
Zn801      Zn  0.39472803  0.45974480  0.62047602     1.55700
O802        O  0.43849946  0.38683024  0.65733627    -0.79600
Cd803      Cd  0.44562040  0.43642382  0.57717947     1.59700
Cd804      Cd  0.48137671  0.51008219  0.62690225     1.59600
O805        O  0.49535325  0.46986345  0.55121237    -0.79600
O806        O  0.43968487  0.45969165  0.62411964    -1.90100
Cd807      Cd  0.43926754  0.43348781  0.67205329     1.59900
O808        O  0.51636912  0.52220700  0.58124954    -0.79600
O809        O  0.39427463  0.42101474  0.70549484    -0.78200
C810        C  0.43250364  0.54144835  0.62541299     0.84300
C811        C  0.37728194  0.42930020  0.53901878     0.84000
O812        O  0.36234036  0.43486723  0.66599797    -0.77200
C813        C  0.44116030  0.37390956  0.62527736     0.84800
O814        O  0.40460295  0.51035395  0.62203924    -0.77300
C815        C  0.51911940  0.50302869  0.55525060     0.84900
C816        C  0.51070616  0.49757037  0.70290970     0.85200
O817        O  0.51190019  0.51777768  0.67557306    -0.79700
O818        O  0.78731653  0.63134154  0.82095848    -0.77200
C819        C  0.78631682  0.64436230  0.94932091     0.83800
O820        O  0.69097864  0.52141862  0.87611263    -0.78300
O821        O  0.66665574  0.60243637  0.95314923    -0.79800
O822        O  0.71188622  0.67916118  0.84069373    -0.79600
O823        O  0.74961930  0.64160590  0.78653597    -0.78200
Zn824      Zn  0.76015122  0.60807651  0.87047353     1.55700
O825        O  0.71416213  0.68027543  0.90532072    -0.79600
Cd826      Cd  0.70907165  0.63116611  0.82612519     1.59700
Cd827      Cd  0.67399250  0.55766880  0.87682631     1.59600
O828        O  0.65923739  0.59701900  0.79989589    -0.79600
O829        O  0.71503565  0.60810464  0.87347251    -1.90100
Cd830      Cd  0.71360781  0.63383056  0.92087117     1.59900
O831        O  0.63805136  0.54573373  0.83234043    -0.79600
O832        O  0.75841001  0.64679661  0.95511669    -0.78200
C833        C  0.72241468  0.52598637  0.87288540     0.84300
C834        C  0.77885425  0.64110593  0.78983693     0.84000
O835        O  0.79083749  0.63185852  0.91786955    -0.77200
C836        C  0.71324090  0.69399626  0.87301391     0.84800
O837        O  0.75045943  0.55711880  0.86994721    -0.77300
C838        C  0.63520768  0.56413404  0.80544268     0.84900
C839        C  0.64265285  0.56914681  0.95120314     0.85200
O840        O  0.64389434  0.54882376  0.92562691    -0.79700
C841        C  0.60255560  0.54649263  0.78024678    -0.04000
C842        C  0.58309348  0.56384686  0.77206496    -0.01200
C843        C  0.55229851  0.54722051  0.74796848     0.03800
C844        C  0.54050515  0.51299223  0.73186040    -0.04000
C845        C  0.55909207  0.49498867  0.74126333    -0.01100
C846        C  0.58994675  0.51163639  0.76534212     0.03800
C847        C  0.59390258  0.59832266  0.78955118     0.38500
C848        C  0.54758014  0.45998465  0.72476464     0.38500
C849        C  0.60942608  0.49324446  0.77356960     0.36900
C850        C  0.53224927  0.56514502  0.74047668     0.36900
N851        N  0.62491613  0.47856727  0.78023617    -0.37900
N852        N  0.51632488  0.57949752  0.73452792    -0.37900
N853        N  0.53844578  0.43207889  0.71163970    -0.37400
N854        N  0.60242705  0.62574792  0.80358167    -0.37400
C855        C  0.55091280  0.52001712  0.52883577    -0.04000
C856        C  0.58592188  0.54460187  0.54332220    -0.01200
C857        C  0.61587442  0.56117179  0.51810784     0.03800
C858        C  0.61126733  0.55317206  0.97816919    -0.04000
C859        C  0.57619334  0.52881006  0.96370556    -0.01100
C860        C  0.54636050  0.51218426  0.98885466     0.03800
C861        C  0.59159264  0.55177913  0.58451321     0.38500
C862        C  0.57027806  0.52158212  0.92249718     0.38500
C863        C  0.51077037  0.48758195  0.97306185     0.36900
C864        C  0.65160864  0.58550314  0.53365608     0.36900
N865        N  0.48253905  0.46781436  0.96029462    -0.37900
N866        N  0.68006693  0.60492527  0.54614633    -0.37900
N867        N  0.56552706  0.51577644  0.88969499    -0.37400
N868        N  0.59610381  0.55742743  0.61736040    -0.37400
C869        C  0.41775989  0.63187189  0.63085763    -0.04000
C870        C  0.41821098  0.61714273  0.59468313    -0.01200
C871        C  0.42331729  0.58760145  0.59282055     0.03800
C872        C  0.42780234  0.57271234  0.62713353    -0.04000
C873        C  0.42726372  0.58738091  0.66328403    -0.01100
C874        C  0.42237112  0.61702326  0.66513591     0.03800
C875        C  0.41358633  0.63253270  0.55945752     0.38500
C876        C  0.43110747  0.57152826  0.69857403     0.38500
C877        C  0.42183127  0.63217637  0.70228822     0.36900
C878        C  0.42431751  0.57271886  0.55565646     0.36900
N879        N  0.42140756  0.64435909  0.73186619    -0.37900
N880        N  0.42520215  0.56091208  0.52599953    -0.37900
N881        N  0.43394664  0.55870798  0.72669876    -0.37400
N882        N  0.40985428  0.64481426  0.53138033    -0.37400
C883        C  0.73278917  0.43235585  0.87342448    -0.04000
C884        C  0.74605363  0.45647974  0.84191726    -0.01200
C885        C  0.74298171  0.48730772  0.84185073     0.03800
C886        C  0.72627500  0.49400508  0.87306856    -0.04000
C887        C  0.71256664  0.46966852  0.90431374    -0.01100
C888        C  0.71605952  0.43911348  0.90463690     0.03800
C889        C  0.76206547  0.44915536  0.80903811     0.38500
C890        C  0.69570775  0.47658626  0.93672884     0.38500
C891        C  0.70334563  0.41516873  0.93768497     0.36900
C892        C  0.75589578  0.51147737  0.80899442     0.36900
N893        N  0.69322378  0.39605174  0.96401984    -0.37900
N894        N  0.76616685  0.53070075  0.78275380    -0.37900
N895        N  0.68223482  0.48214691  0.96250077    -0.37400
N896        N  0.77484214  0.44343705  0.78272617    -0.37400
C897        C  0.52666854  0.83631618  0.63064998    -0.04000
C898        C  0.51629338  0.81388341  0.59785070    -0.01200
C899        C  0.48791847  0.77799629  0.60037350     0.03800
C900        C  0.46982880  0.76440075  0.63575493    -0.04000
C901        C  0.48032561  0.78671731  0.66868403    -0.01100
C902        C  0.50881494  0.82266396  0.66615880     0.03800
C903        C  0.53443611  0.82789161  0.56127314     0.38500
C904        C  0.46218404  0.77242483  0.70523422     0.38500
C905        C  0.52053292  0.84523796  0.70031878     0.36900
C906        C  0.47682219  0.75519752  0.56635301     0.35700
N907        N  0.52999778  0.86312585  0.72766583    -0.37900
N908        N  0.46794253  0.73693382  0.53930474    -0.37900
N909        N  0.44768521  0.76090102  0.73435236    -0.37400
N910        N  0.54874545  0.83887627  0.53197909    -0.37400
C911        C  0.61896248  0.22729083  0.87478427    -0.04000
C912        C  0.62564785  0.24999511  0.84270787    -0.01200
C913        C  0.65524365  0.28551860  0.84317147     0.03800
C914        C  0.67822607  0.29860405  0.87581851    -0.04000
C915        C  0.67105831  0.27605768  0.90820145    -0.01100
C916        C  0.64161446  0.24045905  0.90760175     0.03800
C917        C  0.60263588  0.23645528  0.80873688     0.38500
C918        C  0.69341056  0.28980493  0.94259723     0.38500
C919        C  0.63391268  0.21769853  0.94125447     0.36900
C920        C  0.66252358  0.30834833  0.80966613     0.36900
N921        N  0.62766518  0.19952998  0.96809649    -0.37900
N922        N  0.66833113  0.32663961  0.78301796    -0.37900
N923        N  0.71115349  0.30076552  0.97008948    -0.37400
N924        N  0.58430690  0.22563105  0.78163801    -0.37400
C925        C  0.55625443  0.04690882  0.97613466    -0.04000
C926        C  0.55019492  0.04598346  0.51633154    -0.01200
C927        C  0.56380378  0.03003300  0.54152106     0.03800
C928        C  0.58349328  0.01477217  0.52667987    -0.04000
C929        C  0.58919990  0.01539332  0.98643097    -0.01100
C930        C  0.57552631  0.03122199  0.96127764     0.03800
C931        C  0.53103542  0.06254800  0.53199771     0.38500
C932        C  0.60829869  0.99882055  0.97060346     0.38500
C933        C  0.58016323  0.03007102  0.91983879     0.36900
C934        C  0.55879681  0.03072984  0.58290993     0.36900
N935        N  0.58376167  0.02909525  0.88681612    -0.37900
N936        N  0.55486256  0.03134434  0.61591132    -0.37900
N937        N  0.62357354  0.98570701  0.95787171    -0.37400
N938        N  0.51575357  0.07576435  0.54445862    -0.37400
C939        C  0.56188381  0.04723608  0.77800101    -0.04000
C940        C  0.59784037  0.06759887  0.76436366    -0.01200
C941        C  0.61185035  0.05187727  0.73954292     0.03800
C942        C  0.59011831  0.01558116  0.72797322    -0.04000
C943        C  0.55452491  0.99499851  0.74243759    -0.01100
C944        C  0.54059206  0.01062512  0.76739003     0.03800
C945        C  0.62038437  0.10515509  0.77482780     0.38500
C946        C  0.53227217  0.95724095  0.73265334     0.38500
C947        C  0.50464784  0.98832669  0.78333662     0.36900
C948        C  0.64835067  0.07370174  0.72486407     0.36900
N949        N  0.47603757  0.97055200  0.79609405    -0.37900
N950        N  0.67748827  0.09108849  0.71329159    -0.37900
N951        N  0.51433160  0.92716312  0.72489767    -0.37400
N952        N  0.63852873  0.13506235  0.78321186    -0.37400
C953        C  0.26849082  0.67736065  0.63176044    -0.04000
C954        C  0.27747664  0.66155705  0.66221025    -0.01200
C955        C  0.31159654  0.66452758  0.66311449     0.03800
C956        C  0.33678383  0.68308722  0.63343172    -0.04000
C957        C  0.32769486  0.69871752  0.60288431    -0.01100
C958        C  0.29384686  0.69625703  0.60232444     0.03800
C959        C  0.25219814  0.64354210  0.69351541     0.38500
C960        C  0.35292618  0.71671970  0.57150522     0.38500
C961        C  0.28493192  0.71266456  0.57098356     0.36900
C962        C  0.32119787  0.64940587  0.69518591     0.36900
N963        N  0.27800684  0.72598775  0.54609435    -0.37900
N964        N  0.32895721  0.63736572  0.72068984    -0.37900
N965        N  0.37310175  0.73107072  0.54655152    -0.37400
N966        N  0.23210248  0.62931378  0.71856390    -0.37400
C967        C  0.88120240  0.38714543  0.87704452    -0.04000
C968        C  0.86263265  0.38226146  0.91210305    -0.01200
C969        C  0.82813918  0.37847144  0.91190144     0.03800
C970        C  0.81221160  0.37963445  0.87664967    -0.04000
C971        C  0.83100021  0.38499531  0.84165637    -0.01100
C972        C  0.86554881  0.38895127  0.84187953     0.03800
C973        C  0.87926195  0.38165737  0.94839474     0.38500
C974        C  0.81447048  0.38584271  0.80538742     0.38500
C975        C  0.88503191  0.39486098  0.80594360     0.36900
C976        C  0.80907345  0.37359779  0.94793136     0.36900
N977        N  0.90064212  0.39968525  0.77730404    -0.37900
N978        N  0.79387065  0.36978308  0.97666434    -0.37900
N979        N  0.80119267  0.38636013  0.77645653    -0.37400
N980        N  0.89254453  0.38130089  0.97738944    -0.37400
C981        C  0.09025067  0.55874336  0.52843345    -0.04000
C982        C  0.05251345  0.53485375  0.52758793    -0.01200
C983        C  0.03743858  0.50480748  0.00287346     0.03800
C984        C  0.06004455  0.49814916  0.97934429    -0.04000
C985        C  0.09786561  0.52134890  0.98106691    -0.01100
C986        C  0.11294768  0.55164365  0.50549191     0.03800
C987        C  0.02931249  0.54028478  0.55345203     0.38500
C988        C  0.12118940  0.51473088  0.95671365     0.38500
C989        C  0.15177055  0.57602369  0.50618781     0.36900
C990        C  0.99867480  0.48012136  0.00244036     0.36900
N991        N  0.18273360  0.59543582  0.50672223    -0.37900
N992        N  0.96777758  0.46036999  0.00213066    -0.37900
N993        N  0.13972837  0.50938502  0.93728709    -0.37400
N994        N  0.01092564  0.54453757  0.57432764    -0.37400
C995        C  0.05882011  0.50113212  0.77704762    -0.04000
C996        C  0.05795866  0.49573135  0.73670671    -0.01200
C997        C  0.07243922  0.52532648  0.71141026     0.03800
C998        C  0.08836086  0.56062792  0.72626037    -0.04000
C999        C  0.08955626  0.56607316  0.76657107    -0.01100
C1000       C  0.07483697  0.53647632  0.79187493     0.03800
C1001       C  0.04132882  0.45967905  0.72097881     0.38500
C1002       C  0.10730612  0.60221657  0.78221277     0.38500
C1003       C  0.07762420  0.54265552  0.83332970     0.36900
C1004       C  0.06986248  0.51924215  0.66993337     0.36900
N1005       N  0.07985184  0.54755420  0.86636310    -0.37900
N1006       N  0.06781921  0.51443141  0.63688749    -0.37900
N1007       N  0.12153095  0.63102616  0.79468813    -0.37400
N1008       N  0.02820719  0.43097193  0.70838432    -0.37400
C1009       C  0.19849874  0.40312390  0.87565456    -0.04000
C1010       C  0.16682515  0.37069198  0.88553136    -0.01200
C1011       C  0.13306868  0.36870144  0.88603908     0.03800
C1012       C  0.13061233  0.39880393  0.87549765    -0.04000
C1013       C  0.16226258  0.43123986  0.86559165    -0.01100
C1014       C  0.19616569  0.43359642  0.86647629     0.03800
C1015       C  0.16890724  0.33915918  0.89445044     0.38500
C1016       C  0.15998301  0.46241102  0.85508700     0.38500
C1017       C  0.22876966  0.46773242  0.85923462     0.36900
C1018       C  0.10067927  0.33541263  0.89646618     0.36900
N1019       N  0.25465148  0.49525161  0.85407636    -0.37900
N1020       N  0.07479295  0.30887884  0.90478156    -0.37900
N1021       N  0.15808182  0.48719085  0.84657865    -0.37400
N1022       N  0.17053619  0.31393984  0.90138577    -0.37400
C1023       C  0.35446429  0.42301434  0.50423927    -0.04000
C1024       C  0.31824373  0.39447726  0.50306595    -0.01200
C1025       C  0.29607152  0.39020129  0.97083860     0.03800
C1026       C  0.30968631  0.41507546  0.93993539    -0.04000
C1027       C  0.34567786  0.44439321  0.94195118    -0.01100
C1028       C  0.36808127  0.44792937  0.97354996     0.03800
C1029       C  0.30395548  0.36922404  0.53488718     0.38500
C1030       C  0.35934435  0.47186949  0.91223410     0.38500
C1031       C  0.40489482  0.47812005  0.97517274     0.36900
C1032       C  0.25946271  0.35977050  0.96930602     0.36900
N1033       N  0.43422389  0.50221656  0.97646738    -0.37900
N1034       N  0.23022178  0.33550437  0.96828442    -0.37900
N1035       N  0.37017619  0.49381090  0.88858981    -0.37400
N1036       N  0.29257157  0.34912068  0.56032237    -0.37400
C1037       C  0.33936326  0.41472067  0.72947928    -0.04000
C1038       C  0.32746665  0.43903194  0.73742934    -0.01200
C1039       C  0.30672297  0.43462945  0.77064353     0.03800
C1040       C  0.29716480  0.40566095  0.79612108    -0.04000
C1041       C  0.30658621  0.37982332  0.78658804    -0.01100
C1042       C  0.32774490  0.38441303  0.75355811     0.03800
C1043       C  0.33830979  0.47005880  0.71283362     0.38500
C1044       C  0.29450533  0.34848181  0.81092351     0.38500
C1045       C  0.33723005  0.35770705  0.74421074     0.36900
C1046       C  0.29713311  0.46134263  0.77951803     0.36900
N1047       N  0.34466770  0.33629550  0.73678935    -0.37900
N1048       N  0.28973128  0.48293719  0.78594358    -0.37900
N1049       N  0.28477896  0.32350970  0.83040168    -0.37400
N1050       N  0.34675636  0.49473906  0.69324890    -0.37400
C1051       C  0.02182025  0.67014518  0.62651338    -0.04000
C1052       C  0.99006676  0.64315118  0.64453015    -0.01200
C1053       C  0.95826713  0.64498593  0.64406100     0.03800
C1054       C  0.95818303  0.67449648  0.62665086    -0.04000
C1055       C  0.99035336  0.70202385  0.60963048    -0.01100
C1056       C  0.02184263  0.69963683  0.60919774     0.03800
C1057       C  0.98979082  0.61282735  0.66262860     0.38500
C1058       C  0.99133484  0.73328086  0.59320186     0.38500
C1059       C  0.05466103  0.72814993  0.59188468     0.36900
C1060       C  0.92523937  0.61565990  0.66017105     0.36900
N1061       N  0.08083944  0.75093153  0.57809954    -0.37900
N1062       N  0.89886603  0.59228589  0.67298823    -0.37900
N1063       N  0.99212544  0.75822043  0.58010578    -0.37400
N1064       N  0.98966360  0.58872765  0.67715042    -0.37400
C1065       C  0.84830781  0.66428997  0.69081905    -0.04000
C1066       C  0.81446766  0.63195068  0.69291543    -0.01200
C1067       C  0.79162027  0.62500551  0.72488936     0.03800
C1068       C  0.80262434  0.64981658  0.75562212    -0.04000
C1069       C  0.83653015  0.68189916  0.75394672    -0.01100
C1070       C  0.85922824  0.68925053  0.72153120     0.03800
C1071       C  0.80340423  0.60528551  0.66249298     0.38500
C1072       C  0.84759632  0.70770731  0.78517688     0.38500
C1073       C  0.89336343  0.72288692  0.71933521     0.36900
C1074       C  0.75686600  0.59188452  0.72646506     0.36900
N1075       N  0.92060023  0.74974851  0.71755291    -0.37900
N1076       N  0.72912927  0.56551388  0.72768111    -0.37900
N1077       N  0.85632686  0.72831271  0.81008991    -0.37400
N1078       N  0.79469106  0.58417151  0.63811281    -0.37400
C1079       C  0.85759673  0.66924150  0.54751395    -0.04000
C1080       C  0.84613567  0.63750807  0.52599041    -0.01200
C1081       C  0.82439647  0.63031475  0.49274995     0.03800
C1082       C  0.81330674  0.65449731  0.98105798    -0.04000
C1083       C  0.82608834  0.68696294  0.00163020    -0.01100
C1084       C  0.84830317  0.69437770  0.53456777     0.03800
C1085       C  0.85484350  0.61108705  0.53934242     0.38500
C1086       C  0.81661135  0.71292841  0.98875839     0.38500
C1087       C  0.86151181  0.72786024  0.55533733     0.36900
C1088       C  0.81169215  0.59683121  0.47204458     0.36900
N1089       N  0.87209437  0.75456853  0.57192595    -0.37900
N1090       N  0.80161692  0.57015721  0.45553819    -0.37900
N1091       N  0.80904604  0.73362984  0.97845794    -0.37400
N1092       N  0.86178047  0.59004813  0.55007182    -0.37400
C1093       C  0.71144122  0.79266437  0.87480666    -0.04000
C1094       C  0.68221241  0.76063778  0.88995507    -0.01200
C1095       C  0.68312617  0.72859009  0.88969878     0.03800
C1096       C  0.71272955  0.72793804  0.87331806    -0.04000
C1097       C  0.74165717  0.75967000  0.85758614    -0.01100
C1098       C  0.74130635  0.79203202  0.85887777     0.03800
C1099       C  0.65044809  0.76020817  0.90442200     0.38500
C1100       C  0.77207017  0.75912725  0.84058097     0.38500
C1101       C  0.77207183  0.82487913  0.84449795     0.36900
C1102       C  0.65290620  0.69583870  0.90508864     0.36900
N1103       N  0.79659540  0.85112819  0.83308728    -0.37900
N1104       N  0.62884569  0.66966646  0.91729555    -0.37900
N1105       N  0.79626873  0.75865480  0.82689330    -0.37400
N1106       N  0.62511236  0.75989419  0.91589555    -0.37400
C1107       C  0.67818314  0.91534571  0.50644277    -0.04000
C1108       C  0.65303249  0.90063361  0.97582213    -0.01200
C1109       C  0.66001618  0.88503887  0.94385218     0.03800
C1110       C  0.69296275  0.88536071  0.94149029    -0.04000
C1111       C  0.71831128  0.90052457  0.97201402    -0.01100
C1112       C  0.71063738  0.91492726  0.50469676     0.03800
C1113       C  0.61987559  0.90154938  0.97717807     0.38500
C1114       C  0.75291137  0.90270297  0.96907396     0.38500
C1115       C  0.73654773  0.93028442  0.53611087     0.36900
C1116       C  0.63299840  0.86824455  0.91356000     0.36900
N1117       N  0.75712945  0.94258271  0.56125715    -0.37900
N1118       N  0.61155194  0.85490299  0.88933140    -0.37900
N1119       N  0.78060348  0.90461844  0.96658884    -0.37400
N1120       N  0.59353282  0.90246764  0.97798068    -0.37400
C1121       C  0.70135126  0.88533344  0.79832045    -0.04000
C1122       C  0.67060584  0.86353781  0.77528672    -0.01200
C1123       C  0.66367791  0.87769254  0.74188762     0.03800
C1124       C  0.68729757  0.91395833  0.73141264    -0.04000
C1125       C  0.71877116  0.93535947  0.75369758    -0.01100
C1126       C  0.72571852  0.92109946  0.78706164     0.03800
C1127       C  0.64469251  0.82716849  0.78735698     0.38500
C1128       C  0.74411416  0.97207937  0.74228754     0.38500
C1129       C  0.75767322  0.94343006  0.81024090     0.36900
C1130       C  0.63081661  0.85542450  0.71990302     0.36900
N1131       N  0.78304352  0.96125738  0.82887559    -0.37900
N1132       N  0.60460155  0.83765944  0.70244248    -0.37900
N1133       N  0.76431192  0.00135844  0.73317310    -0.37400
N1134       N  0.62403243  0.79823018  0.79710217    -0.37400
C1135       C  0.82949489  0.15055569  0.62534325    -0.04000
C1136       C  0.79648860  0.15000992  0.62394377    -0.01200
C1137       C  0.76353386  0.11709159  0.62283422     0.03800
C1138       C  0.76339774  0.08456440  0.62320277    -0.04000
C1139       C  0.79628727  0.08495066  0.62490955    -0.01100
C1140       C  0.82936367  0.11796736  0.62597710     0.03800
C1141       C  0.79633244  0.18332974  0.62402497     0.38500
C1142       C  0.79596941  0.05137626  0.62553516     0.38500
C1143       C  0.86321986  0.11848135  0.62787855     0.36900
C1144       C  0.72963171  0.11661795  0.62167102     0.36900
N1145       N  0.89024372  0.11889394  0.62947819    -0.37900
N1146       N  0.70257613  0.11618031  0.62076516    -0.37900
N1147       N  0.79557949  0.02451870  0.62601314    -0.37400
N1148       N  0.79577717  0.20969303  0.62418764    -0.37400
C1149       C  0.92420730  0.25729722  0.69817642    -0.04000
C1150       C  0.95921058  0.26716890  0.71109608    -0.01200
C1151       C  0.97421711  0.28929477  0.74396910     0.03800
C1152       C  0.95423765  0.30163566  0.76427214    -0.04000
C1153       C  0.91858245  0.29047963  0.75212667    -0.01100
C1154       C  0.90376238  0.26856595  0.71917269     0.03800
C1155       C  0.97969951  0.25429645  0.69068902     0.38500
C1156       C  0.89753230  0.30292187  0.77225772     0.38500
C1157       C  0.86795552  0.25901089  0.70589182     0.36900
C1158       C  0.00998475  0.29876312  0.75728843     0.36900
N1159       N  0.83939989  0.25158478  0.69553936    -0.37900
N1160       N  0.03849201  0.30627747  0.76796388    -0.37900
N1161       N  0.88061191  0.31268822  0.78825993    -0.37400
N1162       N  0.99607454  0.24395810  0.67458959    -0.37400
C1163       C  0.92407422  0.25786731  0.55395852    -0.04000
C1164       C  0.95994453  0.26960926  0.54293873    -0.01200
C1165       C  0.97490909  0.29128323  0.50987989     0.03800
C1166       C  0.95386780  0.30085886  0.98699082    -0.04000
C1167       C  0.91728061  0.28745443  0.99698126    -0.01100
C1168       C  0.90272012  0.26664103  0.53064799     0.03800
C1169       C  0.98145976  0.25910781  0.56549297     0.38500
C1170       C  0.89467578  0.29607880  0.97363280     0.38500
C1171       C  0.86622891  0.25589076  0.54222264     0.36900
C1172       C  0.01190431  0.30321383  0.99920647     0.36900
N1173       N  0.83714345  0.24767490  0.55108232    -0.37900
N1174       N  0.04144594  0.31280795  0.99080874    -0.37900
N1175       N  0.87640009  0.30252539  0.95493036    -0.37400
N1176       N  0.99867966  0.25070715  0.58333350    -0.37400
C1177       C  0.31591676  0.90988672  0.87637486    -0.04000
C1178       C  0.34764679  0.91266966  0.89195086    -0.01200
C1179       C  0.38056303  0.94574815  0.89115242     0.03800
C1180       C  0.38247673  0.97588980  0.87313592    -0.04000
C1181       C  0.35117040  0.97287701  0.85631832    -0.01100
C1182       C  0.31780384  0.94028804  0.85886620     0.03800
C1183       C  0.34687423  0.88113543  0.90728508     0.38500
C1184       C  0.35321607  0.00344886  0.83675591     0.38500
C1185       C  0.28523993  0.93830002  0.84425113     0.36900
C1186       C  0.41285929  0.94844393  0.90770867     0.36900
N1187       N  0.25921502  0.93670487  0.83274733    -0.37900
N1188       N  0.43861799  0.95064425  0.92093401    -0.37900
N1189       N  0.35495586  0.02776582  0.82086904    -0.37400
N1190       N  0.34619406  0.85591135  0.91933917    -0.37400
C1191       C  0.22250323  0.79880459  0.94540548    -0.04000
C1192       C  0.20631053  0.80812000  0.97500128    -0.01200
C1193       C  0.19177538  0.78592294  0.50780807     0.03800
C1194       C  0.19248518  0.75388597  0.51063965    -0.04000
C1195       C  0.20901152  0.74473226  0.98135893    -0.01100
C1196       C  0.22462626  0.76747456  0.94923130     0.03800
C1197       C  0.20371747  0.83999204  0.97122216     0.38500
C1198       C  0.20996743  0.71186091  0.98433881     0.38500
C1199       C  0.24360825  0.75904259  0.92048241     0.36900
C1200       C  0.17566817  0.79575944  0.53846892     0.36900
N1201       N  0.25890483  0.75249961  0.89759856    -0.37900
N1202       N  0.16300072  0.80370570  0.56305409    -0.37900
N1203       N  0.21059292  0.68558039  0.48662847    -0.37400
N1204       N  0.20161980  0.86541577  0.96817794    -0.37400
C1205       C  0.19312671  0.76142752  0.73534468    -0.04000
C1206       C  0.22880184  0.77307658  0.74770607    -0.01200
C1207       C  0.24292658  0.79461308  0.78096964     0.03800
C1208       C  0.22158863  0.80473348  0.80208258    -0.04000
C1209       C  0.18656265  0.79441538  0.78890406    -0.01100
C1210       C  0.17238951  0.77290911  0.75554492     0.03800
C1211       C  0.25040385  0.76125334  0.72764164     0.38500
C1212       C  0.16511001  0.80588887  0.80978772     0.38500
C1213       C  0.13663955  0.76299698  0.74170236     0.36900
C1214       C  0.27886430  0.80488577  0.79461665     0.36900
N1215       N  0.10817998  0.75514710  0.73052495    -0.37900
N1216       N  0.30749086  0.81319114  0.80563503    -0.37900
N1217       N  0.14801553  0.81505061  0.82647285    -0.37400
N1218       N  0.26767796  0.75185288  0.71173337    -0.37400
C1219       C  0.44190150  0.34020098  0.62581249    -0.04000
C1220       C  0.40997442  0.30708939  0.63269443    -0.01200
C1221       C  0.41058416  0.27489197  0.63183967     0.03800
C1222       C  0.44333507  0.27582517  0.62525974    -0.04000
C1223       C  0.47560835  0.30911458  0.62050645    -0.01100
C1224       C  0.47481597  0.34119785  0.62017046     0.03800
C1225       C  0.37652963  0.30622472  0.64057178     0.38500
C1226       C  0.50978001  0.31040139  0.61726572     0.38500
C1227       C  0.50804122  0.37535599  0.61509824     0.36900
C1228       C  0.37756374  0.24076934  0.63774027     0.36900
N1229       N  0.53457687  0.40258813  0.61116195    -0.37900
N1230       N  0.35124244  0.21350732  0.64243329    -0.37900
N1231       N  0.53713272  0.31153944  0.61529158    -0.37400
N1232       N  0.34994872  0.30567567  0.64709289    -0.37400
C1233       C  0.46654337  0.14692890  0.75685735    -0.04000
C1234       C  0.49076528  0.15782346  0.72553756    -0.01200
C1235       C  0.48620487  0.17517511  0.69353598     0.03800
C1236       C  0.45612982  0.17995716  0.69154277    -0.04000
C1237       C  0.43181520  0.16892714  0.72297124    -0.01100
C1238       C  0.43748650  0.15313163  0.75588952     0.03800
C1239       C  0.52099091  0.15187997  0.72662894     0.38500
C1240       C  0.40043201  0.17290591  0.72109667     0.38500
C1241       C  0.41298092  0.14249230  0.78840508     0.36900
C1242       C  0.51326368  0.18918935  0.66325837     0.36900
N1243       N  0.39349055  0.13408153  0.81440064    -0.37900
N1244       N  0.53485548  0.20043574  0.63916189    -0.37900
N1245       N  0.37542197  0.17612776  0.71957940    -0.37400
N1246       N  0.54494653  0.14695585  0.72751255    -0.37400
C1247       C  0.46069568  0.14951577  0.98224845    -0.04000
C1248       C  0.48511009  0.18582433  0.49200875    -0.01200
C1249       C  0.47867160  0.20131712  0.52445320     0.03800
C1250       C  0.44819299  0.18053695  0.54803305    -0.04000
C1251       C  0.42325513  0.14455911  0.53768263    -0.01100
C1252       C  0.42930581  0.12921434  0.00473749     0.03800
C1253       C  0.51837196  0.20675579  0.47039177     0.38500
C1254       C  0.39154529  0.12312795  0.56129119     0.38500
C1255       C  0.40304030  0.09257733  0.99386258     0.36900
C1256       C  0.50474806  0.23820371  0.53461972     0.36900
N1257       N  0.38205553  0.06338652  0.98511537    -0.37900
N1258       N  0.52573659  0.26769990  0.54217951    -0.37900
N1259       N  0.36640230  0.10598015  0.58030199    -0.37400
N1260       N  0.54496290  0.22339619  0.45333732    -0.37400
loop_ 
_geom_bond_atom_site_label_1 
_geom_bond_atom_site_label_2 
_geom_bond_distance 
_geom_bond_site_symmetry_2 
_ccdc_geom_bond_type 
C1            C2   1.404       .  A
C1            C6   1.403       .  A
C1          C592   1.484       .  S
C2            C3   1.404       .  A
C2            H7   1.084       .  S
C3            C4   1.401       .  A
C3          C620   1.491       .  S
C4            C5   1.403       .  A
C4            H8   1.083       .  S
C5            C6   1.404       .  A
C5          C606   1.491       .  S
C6            H9   1.083       .  S
C10          C11   1.403       .  A
C10          C15   1.408       .  A
C10         C547   1.491       .  S
C11          C12   1.400       .  A
C11          H16   1.085       .  S
C12          C13   1.399       .  A
C12         C578   1.484       .  S
C13          C14   1.402       .  A
C13          H17   1.083       .  S
C14          C15   1.405       .  A
C14         C561   1.488       .  S
C15          H18   1.083       .  S
C19          C20   1.402       .  A
C19          C24   1.403       .  A
C19         C505   1.482       .  S
C20          C21   1.403       .  A
C20          H25   1.085       .  S
C21          C22   1.403       .  A
C21         C533   1.489       .  S
C22          C23   1.403       .  A
C22          H26   1.082       .  S
C23          C24   1.404       .  A
C23         C519   1.488       .  S
C24          H27   1.084       .  S
C28          C29   1.405       .  A
C28          C33   1.409       .  A
C28         C463   1.495       .  S
C29          C30   1.402       .  A
C29          H34   1.086       .  S
C30          C31   1.399       .  A
C30         C491   1.487       .  S
C31          C32   1.401       .  A
C31          H35   1.085       .  S
C32          C33   1.407       .  A
C32         C480   1.491       .  S
C33          H36   1.081       .  S
C37          C38   1.407       .  A
C37          C42   1.411       .  A
C37         C424   1.499       .  S
C38          C39   1.404       .  A
C38          H43   1.086       .  S
C39          C40   1.401       .  A
C39         C449   1.492       .  S
C40          C41   1.403       .  A
C40          H44   1.083       .  S
C41          C42   1.407       .  A
C41         C435   1.496       .  S
C42          H45   1.082       .  S
C46          C47   1.405       .  A
C46          C51   1.407       .  A
C46         C379   1.490       .  S
C47          C48   1.404       .  A
C47          H52   1.084       .  S
C48          C49   1.403       .  A
C48         C410   1.494       .  S
C49          C50   1.405       .  A
C49          H53   1.081       .  S
C50          C51   1.408       .  A
C50         C396   1.499       .  S
C51          H54   1.085       .  S
O55          C71   1.275       .  A
O55         Zn61   2.016       .  S
C56         C536   1.490       .  S
C56          O72   1.275       .  A
C56          O69   1.276   1_655  A
O57          C70   1.271       .  A
O57         Cd64   2.060       .  S
O58          C76   1.275       .  A
O58         Cd67   2.074       .  S
O59          C73   1.276       .  A
O59         Cd63   2.081       .  S
O60          C71   1.277   1_455  A
O60         Cd63   2.078       .  S
Zn61         O72   2.014       .  S
Zn61         O74   2.026       .  S
Zn61         O66   1.943   1_655  S
O62          C73   1.275       .  A
O62         Cd67   2.077       .  S
Cd63         O65   2.072       .  S
Cd63         O66   2.001       .  S
Cd64         O68   2.049   1_655  S
Cd64         O77   2.053   1_655  S
Cd64         O66   1.997   1_655  S
O65          C75   1.275       .  A
O66         Cd67   1.998       .  S
Cd67         O69   2.068       .  S
O68          C75   1.272       .  A
C70         C337   1.476       .  S
C70          O74   1.273       .  A
C71         C522   1.489       .  S
C73         C382   1.484       .  S
C75         C365   1.484       .  S
C76         C354   1.478       .  S
C76          O77   1.272       .  A
O78          C94   1.274       .  A
O78         Zn84   2.018       .  S
C79         C575   1.484       .  S
C79          O95   1.275       .  A
C79          O92   1.275       .  A
O80          C93   1.271       .  A
O80         Cd87   2.051       .  S
O81          C99   1.276       .  A
O81         Cd90   2.075       .  S
O82          C96   1.278       .  A
O82         Cd86   2.090       .  S
O83          C94   1.275       .  A
O83         Cd86   2.073       .  S
Zn84         O95   2.016       .  S
Zn84         O97   2.021       .  S
Zn84         O89   1.942       .  S
O85          C96   1.275       .  A
O85         Cd90   2.074       .  S
Cd86         O88   2.082       .  S
Cd86         O89   1.994       .  S
Cd87         O91   2.051       .  S
Cd87        O100   2.044       .  S
Cd87         O89   1.992       .  S
O88          C98   1.277       .  A
O89         Cd90   1.996       .  S
Cd90         O92   2.066       .  S
O91          C98   1.272       .  A
C93         C323   1.479       .  S
C93          O97   1.273       .  A
C94         C564   1.477       .  S
C96         C421   1.489       .  S
C98         C351   1.480       .  S
C99         C368   1.482       .  S
C99         O100   1.271       .  A
O101        C117   1.273       .  A
O101       Zn107   2.013       .  S
C102        C617   1.487       .  S
C102        O118   1.274       .  A
C102        O115   1.275       .  A
O103        C116   1.275       .  A
O103       Cd110   2.073       .  S
O104        C122   1.274       .  A
O104       Cd113   2.072       .  S
O105        C119   1.276       .  A
O105       Cd109   2.081       .  S
O106        C117   1.274       .  A
O106       Cd109   2.067       .  S
Zn107       O118   2.010       .  S
Zn107       O120   2.010       .  S
Zn107       O112   1.939       .  S
O108        C119   1.274       .  A
O108       Cd113   2.065       .  S
Cd109       O111   2.071       .  S
Cd109       O112   1.993       .  S
Cd110       O114   2.068       .  S
Cd110       O123   2.060       .  S
Cd110       O112   2.000       .  S
O111        C121   1.276       .  A
O112       Cd113   1.996       .  S
Cd113       O115   2.071       .  S
O114        C121   1.274       .  A
C116        C281   1.480       .  S
C116        O120   1.272       .  A
C117        C603   1.477       .  S
C119        C550   1.482   1_545  S
C121        C309   1.494       .  S
C122        C295   1.485       .  S
C122        O123   1.274       .  A
O124        C140   1.274       .  A
O124       Zn130   2.020       .  S
C125        C494   1.486       .  S
C125        O141   1.274       .  A
C125        O138   1.274       .  A
O126        C139   1.275       .  A
O126       Cd133   2.073       .  S
O127        C145   1.275   1_545  A
O127       Cd136   2.074   1_545  S
O128        C142   1.275       .  A
O128       Cd132   2.074   1_545  S
O129        C140   1.274       .  A
O129       Cd132   2.073       .  S
Zn130       O141   2.017       .  S
Zn130       O143   2.000       .  S
Zn130       O135   1.940       .  S
O131        C142   1.274       .  A
O131       Cd136   2.063   1_545  S
Cd132       O134   2.069   1_565  S
Cd132       O135   1.993       .  S
Cd133       O137   2.071       .  S
Cd133       O146   2.063       .  S
Cd133       O135   2.000       .  S
O134        C144   1.275   1_545  A
O135       Cd136   1.994       .  S
Cd136       O138   2.062       .  S
O137        C144   1.275       .  A
C139        C267   1.474       .  S
C139        O143   1.271       .  A
C140        C477   1.480       .  S
C142        C508   1.474       .  S
C144        C298   1.486   1_565  S
C145        C312   1.493   1_565  S
C145        O146   1.274       .  A
C147        C148   1.403       .  A
C147        C152   1.405       .  A
C147        C253   1.488       .  S
C148        C149   1.400       .  A
C148        H153   1.083       .  S
C149        C150   1.400       .  A
C149        C340   1.481       .  S
C150        C151   1.402       .  A
C150        H154   1.084       .  S
C151        C152   1.404       .  A
C151        C284   1.487       .  S
C152        H155   1.086       .  S
C156        C157   1.400       .  A
C156        C161   1.402       .  A
C156        C239   1.479       .  S
C157        C158   1.400       .  A
C157        H162   1.087       .  S
C158        C159   1.397       .  A
C158        C270   1.478       .  S
C159        C160   1.400       .  A
C159        H163   1.084       .  S
C160        C161   1.403       .  A
C160        C326   1.484       .  S
C161        H164   1.081       .  S
O165        C181   1.273       .  A
O165       Zn171   2.013       .  S
C166        C407   1.493       .  S
C166        O182   1.275       .  A
C166        O179   1.277       .  A
O167        C180   1.272       .  A
O167       Cd174   2.059       .  S
O168        C186   1.277       .  A
O168       Cd177   2.086       .  S
O169        C183   1.277       .  A
O169       Cd173   2.083       .  S
O170        C181   1.278       .  A
O170       Cd173   2.094       .  S
Zn171       O182   2.016       .  S
Zn171       O184   2.013       .  S
Zn171       O176   1.943       .  S
O172        C183   1.276       .  A
O172       Cd177   2.073       .  S
Cd173       O175   2.082       .  S
Cd173       O176   1.999       .  S
Cd174       O178   2.062       .  S
Cd174       O187   2.053       .  S
Cd174       O176   1.999       .  S
O175        C185   1.277       .  A
O176       Cd177   2.005       .  S
Cd177       O179   2.082       .  S
O178        C185   1.273       .  A
C180        C242   1.473       .  S
C180        O184   1.272       .  A
C181        C393   1.486       .  S
C183        C589   1.480       .  S
C185        C225   1.494       .  S
C186        C214   1.488       .  S
C186        O187   1.272       .  A
O188        C204   1.275       .  A
O188       Zn194   2.031       .  S
C189        C452   1.490       .  S
C189        O205   1.276       .  A
C189        O202   1.277       .  A
O190        C203   1.271       .  A
O190       Cd197   2.048       .  S
O191        C209   1.277       .  A
O191       Cd200   2.095       .  S
O192        C206   1.277       .  A
O192       Cd196   2.086       .  S
O193        C204   1.277       .  A
O193       Cd196   2.084       .  S
Zn194       O205   2.023       .  S
Zn194       O207   2.030       .  S
Zn194       O199   1.949       .  S
O195        C206   1.276       .  A
O195       Cd200   2.074       .  S
Cd196       O198   2.089       .  S
Cd196       O199   2.002       .  S
Cd197       O201   2.049       .  S
Cd197       O210   2.047       .  S
Cd197       O199   1.992       .  S
O198        C208   1.278       .  A
O199       Cd200   2.004       .  S
Cd200       O202   2.079       .  S
O201        C208   1.271       .  A
C203        C256   1.480       .  S
C203        O207   1.275       .  A
C204        C438   1.485       .  S
C206        C466   1.485       .  S
C208        C211   1.489       .  S
C209        C228   1.493       .  S
C209        O210   1.271       .  A
C211        C212   1.413       .  A
C211        C216   1.417       .  A
C212        C213   1.411       .  A
C212        C217   1.452       .  S
C213        C214   1.415       .  A
C213        C220   1.452       .  S
C214        C215   1.414       .  A
C215        C216   1.412       .  A
C215        C218   1.452       .  S
C216        C219   1.452       .  S
C217        N224   1.157       .  T
C218        N223   1.158       .  T
C219        N221   1.157       .  T
C220        N222   1.157       .  T
C225        C226   1.419       .  A
C225        C860   1.414   1_554  A
C226        C227   1.415       .  A
C226        C231   1.452       .  S
C227        C858   1.414   1_554  A
C227        C234   1.451       .  S
C228        C229   1.419       .  A
C228        C857   1.414       .  A
C229        C230   1.410       .  A
C229        C232   1.454       .  S
C230        C855   1.414       .  A
C230        C233   1.452       .  S
C231        N238   1.158       .  T
C232        N237   1.158       .  T
C233        N235   1.157       .  T
C234        N236   1.157       .  T
C239        C240   1.411       .  A
C239        C244   1.410       .  A
C240        C241   1.410       .  A
C240        C245   1.451       .  S
C241        C242   1.410       .  A
C241        C248   1.451       .  S
C242        C243   1.410       .  A
C243        C244   1.408       .  A
C243        C246   1.451       .  S
C244        C247   1.451       .  S
C245        N252   1.157       .  T
C246        N251   1.157       .  T
C247        N249   1.157       .  T
C248        N250   1.157       .  T
C253        C254   1.414       .  A
C253        C258   1.413       .  A
C254        C255   1.411       .  A
C254        C259   1.451       .  S
C255        C256   1.411       .  A
C255        C262   1.451       .  S
C256        C257   1.413       .  A
C257        C258   1.409       .  A
C257        C260   1.452       .  S
C258        C261   1.451       .  S
C259        N266   1.157       .  T
C260        N265   1.157       .  T
C261        N263   1.157       .  T
C262        N264   1.157       .  T
C267        C268   1.410       .  A
C267        C272   1.411       .  A
C268        C269   1.406       .  A
C268        C273   1.450       .  S
C269        C270   1.410       .  A
C269        C276   1.452       .  S
C270        C271   1.411       .  A
C271        C272   1.410       .  A
C271        C274   1.451       .  S
C272        C275   1.450       .  S
C273        N280   1.157       .  T
C274        N279   1.157       .  T
C275        N277   1.157       .  T
C276        N278   1.157       .  T
C281        C282   1.412       .  A
C281        C286   1.411       .  A
C282        C283   1.410       .  A
C282        C287   1.451       .  S
C283        C284   1.413       .  A
C283        C290   1.451       .  S
C284        C285   1.414       .  A
C285        C286   1.410       .  A
C285        C288   1.451       .  S
C286        C289   1.451       .  S
C287        N294   1.157       .  T
C288        N293   1.157       .  T
C289        N291   1.157       .  T
C290        N292   1.157       .  T
C295        C300   1.415       .  A
C295        C926   1.413       .  A
C296        C297   1.412       .  A
C296        C925   1.413   1_554  A
C296        C301   1.452       .  S
C297        C298   1.416       .  A
C297        C304   1.452       .  S
C298        C929   1.413   1_554  A
C299        C300   1.410       .  A
C299        C928   1.413       .  A
C299        C302   1.452   1_545  S
C300        C303   1.453       .  S
C301        N308   1.157       .  T
C302        N307   1.157       .  T
C303        N305   1.158       .  T
C304        N306   1.158       .  T
C309        C310   1.417       .  A
C309        C314   1.417       .  A
C310        C311   1.413       .  A
C310        C315   1.452       .  S
C311        C312   1.416       .  A
C311        C318   1.452       .  S
C312        C313   1.416   1_545  A
C313        C314   1.411   1_565  A
C313        C316   1.452       .  S
C314        C317   1.453   1_545  S
C315        N322   1.157       .  T
C316        N321   1.157       .  T
C317        N319   1.158       .  T
C318        N320   1.157       .  T
C323        C324   1.414       .  A
C323        C328   1.412       .  A
C324        C325   1.410       .  A
C324        C329   1.451       .  S
C325        C326   1.412       .  A
C325        C332   1.451       .  S
C326        C327   1.414       .  A
C327        C328   1.408       .  A
C327        C330   1.452       .  S
C328        C331   1.451       .  S
C329        N336   1.157       .  T
C330        N335   1.157       .  T
C331        N333   1.157       .  T
C332        N334   1.157       .  T
C337        C338   1.411       .  A
C337        C342   1.411       .  A
C338        C339   1.410       .  A
C338        C343   1.450       .  S
C339        C340   1.411       .  A
C339        C346   1.451       .  S
C340        C341   1.411       .  A
C341        C342   1.409       .  A
C341        C344   1.451       .  S
C342        C345   1.451       .  S
C343        N350   1.157       .  T
C344        N349   1.157       .  T
C345        N347   1.157       .  T
C346        N348   1.157       .  T
C351        C352   1.412       .  A
C351        C356   1.414       .  A
C352        C983   1.409       .  A
C352        C357   1.452       .  S
C353        C354   1.412       .  A
C353        C982   1.409       .  A
C353        C360   1.451   1_455  S
C354        C355   1.412       .  A
C355        C986   1.410       .  A
C355        C358   1.452       .  S
C356        C985   1.410   1_554  A
C356        C359   1.451       .  S
C357        N364   1.157       .  T
C358        N363   1.157       .  T
C359        N361   1.157       .  T
C360        N362   1.157       .  T
C365        C366   1.413       .  A
C365        C370   1.417       .  A
C366        C367   1.409       .  A
C366        C371   1.452       .  S
C367        C368   1.416       .  A
C367        C374   1.453       .  S
C368        C369   1.411       .  A
C369        C370   1.409       .  A
C369        C372   1.452       .  S
C370        C373   1.453       .  S
C371        N378   1.157       .  T
C372        N377   1.157       .  T
C373        N375   1.158       .  T
C374        N376   1.158       .  T
C379        C380   1.413       .  A
C379        C384   1.413       .  A
C380        C381   1.413       .  A
C380        C385   1.450       .  S
C381        C382   1.411       .  A
C381        C388   1.450       .  S
C382        C383   1.413       .  A
C383        C384   1.412       .  A
C383        C386   1.452       .  S
C384        C387   1.450       .  S
C385        N392   1.157       .  T
C386        N391   1.157       .  T
C387        N389   1.157       .  T
C388        N390   1.157       .  T
C393        C394   1.411       .  A
C393       C1028   1.412   1_554  A
C394       C1025   1.415   1_554  A
C394        C399   1.450       .  S
C395        C396   1.416       .  A
C395       C1024   1.415       .  A
C395        C402   1.450       .  S
C396        C397   1.417       .  A
C397        C398   1.412       .  A
C397        C400   1.452       .  S
C398       C1023   1.412       .  A
C398        C401   1.452       .  S
C399        N406   1.157       .  T
C400        N405   1.157       .  T
C401        N403   1.157       .  T
C402        N404   1.157       .  T
C407        C408   1.418       .  A
C407        C412   1.414       .  A
C408        C409   1.411       .  A
C408        C413   1.453       .  S
C409        C410   1.413       .  A
C409        C416   1.450       .  S
C410        C411   1.415       .  A
C411        C412   1.414       .  A
C411        C414   1.451       .  S
C412        C415   1.450       .  S
C413        N420   1.157       .  T
C414        N419   1.157       .  T
C415        N417   1.157       .  T
C416        N418   1.157       .  T
C421        C422   1.413   1_455  A
C421        C426   1.412       .  A
C422        C423   1.414       .  A
C422        C427   1.451       .  S
C423        C424   1.417       .  A
C423        C430   1.451       .  S
C424        C425   1.416       .  A
C425        C426   1.414   1_655  A
C425        C428   1.451       .  S
C426        C429   1.450       .  S
C427        N434   1.157       .  T
C428        N433   1.157       .  T
C429        N431   1.157       .  T
C430        N432   1.157       .  T
C435        C436   1.416       .  A
C435        C440   1.415       .  A
C436        C437   1.410       .  A
C436        C441   1.452       .  S
C437        C438   1.411       .  A
C437        C444   1.452       .  S
C438        C439   1.412       .  A
C439        C440   1.416       .  A
C439        C442   1.450       .  S
C440        C443   1.450       .  S
C441        N448   1.157       .  T
C442        N447   1.157       .  T
C443        N445   1.157       .  T
C444        N446   1.157       .  T
C449        C450   1.414       .  A
C449        C454   1.413       .  A
C450        C451   1.411   1_554  A
C450        C455   1.452       .  S
C451       C1082   1.416       .  A
C451        C458   1.452       .  S
C452        C453   1.414       .  A
C452       C1081   1.416       .  A
C453       C1084   1.413       .  A
C453        C456   1.451       .  S
C454       C1083   1.413       .  A
C454        C457   1.451       .  S
C455        N462   1.157       .  T
C456        N461   1.157       .  T
C457        N459   1.157       .  T
C458        N460   1.158       .  T
C463        C464   1.415       .  A
C463        C468   1.416       .  A
C464        C465   1.412       .  A
C464        C469   1.451       .  S
C465        C466   1.412       .  A
C465        C472   1.452       .  S
C466        C467   1.411       .  A
C467        C468   1.413       .  A
C467        C470   1.451       .  S
C468        C471   1.451       .  S
C469        N476   1.157       .  T
C470        N475   1.157       .  T
C471        N473   1.157       .  T
C472        N474   1.157       .  T
C477        C482   1.410       .  A
C477       C1108   1.411   1_554  A
C478        C479   1.409       .  A
C478       C1107   1.411       .  A
C478        C483   1.451       .  S
C479        C480   1.416       .  A
C479        C486   1.452       .  S
C480        C481   1.414       .  A
C481       C1112   1.413       .  A
C481        C484   1.450       .  S
C482       C1111   1.413   1_554  A
C482        C485   1.450       .  S
C483        N490   1.157       .  T
C484        N489   1.157       .  T
C485        N487   1.157       .  T
C486        N488   1.157       .  T
C491        C492   1.413       .  A
C491        C496   1.413       .  A
C492        C493   1.409       .  A
C492        C497   1.452       .  S
C493        C494   1.416       .  A
C493        C500   1.453       .  S
C494        C495   1.415       .  A
C495        C496   1.411       .  A
C495        C498   1.452       .  S
C496        C499   1.451       .  S
C497        N504   1.157       .  T
C498        N503   1.157   1_565  T
C499        N501   1.157       .  T
C500        N502   1.158       .  T
C505        C506   1.412       .  A
C505        C510   1.412       .  A
C506        C507   1.407       .  A
C506        C511   1.450       .  S
C507        C508   1.409       .  A
C507        C514   1.452       .  S
C508        C509   1.411       .  A
C509        C510   1.412       .  A
C509        C512   1.451       .  S
C510        C513   1.450       .  S
C511        N518   1.157       .  T
C512        N517   1.157       .  T
C513        N515   1.157       .  T
C514        N516   1.157       .  T
C519        C520   1.412       .  A
C519        C524   1.412       .  A
C520        C521   1.413       .  A
C520        C525   1.450       .  S
C521        C522   1.415       .  A
C521        C528   1.451   1_655  S
C522        C523   1.417       .  A
C523        C524   1.410       .  A
C523        C526   1.452       .  S
C524        C527   1.451       .  S
C525        N532   1.157       .  T
C526        N531   1.157       .  T
C527        N529   1.157       .  T
C528        N530   1.157       .  T
C533        C534   1.412       .  A
C533        C538   1.413       .  A
C534        C535   1.411       .  A
C534        C539   1.451       .  S
C535       C1166   1.416   1_554  A
C535       C1172   1.451   1_654  S
C536        C537   1.418       .  A
C536       C1165   1.416       .  A
C537       C1168   1.410       .  A
C537        C540   1.453       .  S
C538       C1167   1.410   1_554  A
C538        C541   1.451       .  S
C539        N546   1.157       .  T
C540        N545   1.157       .  T
C541        N543   1.157       .  T
C542       C1165   1.451   1_455  S
C542        N544   1.157       .  T
C547        C548   1.415       .  A
C547        C552   1.415       .  A
C548        C549   1.410       .  A
C548        C553   1.452       .  S
C549        C550   1.412       .  A
C549        C556   1.452       .  S
C550        C551   1.411       .  A
C551        C552   1.412       .  A
C551        C554   1.451   1_565  S
C552        C555   1.451       .  S
C553        N560   1.157       .  T
C554        N559   1.157       .  T
C555        N557   1.157       .  T
C556        N558   1.157       .  T
C561        C562   1.413       .  A
C561        C566   1.415       .  A
C562       C1193   1.412       .  A
C562        C567   1.450       .  S
C563        C564   1.410       .  A
C563       C1192   1.412   1_554  A
C563        C570   1.450       .  S
C564       C1195   1.410   1_554  A
C565        C566   1.409       .  A
C565       C1194   1.410       .  A
C565        C568   1.452       .  S
C566        C569   1.452       .  S
C567        N574   1.157       .  T
C568       N1203   1.157       .  T
C569        N571   1.157       .  T
C570        N572   1.157       .  T
N573       C1198   1.157       .  T
C575        C576   1.415       .  A
C575        C580   1.414       .  A
C576        C577   1.408       .  A
C576        C581   1.452       .  S
C577        C578   1.412       .  A
C577        C584   1.452       .  S
C578        C579   1.411       .  A
C579        C580   1.411       .  A
C579        C582   1.451       .  S
C580        C583   1.451       .  S
C581        N588   1.158       .  T
C582        N587   1.157       .  T
C583        N585   1.157       .  T
C584        N586   1.157       .  T
C589        C590   1.411       .  A
C589        C594   1.412       .  A
C590        C591   1.412       .  A
C590        C595   1.450       .  S
C591        C592   1.411       .  A
C591        C598   1.450       .  S
C592        C593   1.411       .  A
C593        C594   1.411       .  A
C593        C596   1.450       .  S
C594        C597   1.451       .  S
C595        N602   1.157       .  T
C596        N601   1.157       .  T
C597        N599   1.157       .  T
C598        N600   1.157       .  T
C603        C604   1.411       .  A
C603        C608   1.410       .  A
C604        C605   1.407       .  A
C604        C609   1.453       .  S
C605        C606   1.416       .  A
C605        C612   1.452       .  S
C606        C607   1.416       .  A
C607        C608   1.412       .  A
C607        C610   1.451       .  S
C608        C611   1.450       .  S
C609        N616   1.157       .  T
C610        N615   1.157       .  T
C611        N613   1.157       .  T
C612        N614   1.157       .  T
C617        C622   1.414       .  A
C617       C1248   1.416       .  A
C618        C619   1.409   1_556  A
C618       C1247   1.416       .  A
C618        C623   1.454       .  S
C619        C620   1.414       .  A
C619        C626   1.451       .  S
C620        C621   1.414       .  A
C621       C1252   1.412       .  A
C621        C624   1.451       .  S
C622       C1251   1.412       .  A
C622        C625   1.451       .  S
C623        N630   1.158       .  T
C624        N629   1.157       .  T
C625        N627   1.157       .  T
C626        N628   1.157       .  T
C631        C632   1.404       .  A
C631        C636   1.403       .  A
C631       C1222   1.484       .  S
C632        C633   1.404       .  A
C632        H637   1.084       .  S
C633        C634   1.401       .  A
C633       C1250   1.491       .  S
C634        C635   1.403       .  A
C634        H638   1.083       .  S
C635        C636   1.404       .  A
C635       C1236   1.491       .  S
C636        H639   1.083       .  S
C640        C641   1.403       .  A
C640        C645   1.408       .  A
C640       C1177   1.491       .  S
C641        C642   1.400       .  A
C641        H646   1.085       .  S
C642        C643   1.399       .  A
C642       C1208   1.484       .  S
C643        C644   1.402       .  A
C643        H647   1.083       .  S
C644        C645   1.405       .  A
C644       C1191   1.488       .  S
C645        H648   1.083       .  S
C649        C650   1.402       .  A
C649        C654   1.403       .  A
C649       C1135   1.482       .  S
C650        C651   1.403       .  A
C650        H655   1.085       .  S
C651        C652   1.403       .  A
C651       C1163   1.489       .  S
C652        C653   1.403       .  A
C652        H656   1.082       .  S
C653        C654   1.404       .  A
C653       C1149   1.488       .  S
C654        H657   1.084       .  S
C658        C659   1.405       .  A
C658        C663   1.409       .  A
C658       C1093   1.495       .  S
C659        C660   1.402       .  A
C659        H664   1.086       .  S
C660        C661   1.399       .  A
C660       C1121   1.487       .  S
C661        C662   1.401       .  A
C661        H665   1.085       .  S
C662        C663   1.407       .  A
C662       C1110   1.491       .  S
C663        H666   1.081       .  S
C667        C668   1.407       .  A
C667        C672   1.411       .  A
C667       C1054   1.499       .  S
C668        C669   1.404       .  A
C668        H673   1.086       .  S
C669        C670   1.401       .  A
C669       C1079   1.492       .  S
C670        C671   1.403       .  A
C670        H674   1.083       .  S
C671        C672   1.407       .  A
C671       C1065   1.496       .  S
C672        H675   1.082       .  S
C676        C677   1.405       .  A
C676        C681   1.407       .  A
C676       C1009   1.490       .  S
C677        C678   1.404       .  A
C677        H682   1.084       .  S
C678        C679   1.403       .  A
C678       C1040   1.494       .  S
C679        C680   1.405       .  A
C679        H683   1.081       .  S
C680        C681   1.408       .  A
C680       C1026   1.499       .  S
C681        H684   1.085       .  S
O685        C701   1.275       .  A
O685       Zn691   2.016       .  S
C686       C1166   1.490       .  S
C686        O702   1.275       .  A
C686        O699   1.276   1_655  A
O687        C700   1.271       .  A
O687       Cd694   2.060       .  S
O688        C706   1.275       .  A
O688       Cd697   2.074       .  S
O689        C703   1.276       .  A
O689       Cd693   2.081       .  S
O690        C701   1.277   1_455  A
O690       Cd693   2.078       .  S
Zn691       O702   2.014       .  S
Zn691       O704   2.026       .  S
Zn691       O696   1.943   1_655  S
O692        C703   1.275       .  A
O692       Cd697   2.077       .  S
Cd693       O695   2.072       .  S
Cd693       O696   2.001       .  S
Cd694       O698   2.049   1_655  S
Cd694       O707   2.053   1_655  S
Cd694       O696   1.997   1_655  S
O695        C705   1.275       .  A
O696       Cd697   1.998       .  S
Cd697       O699   2.068       .  S
O698        C705   1.272       .  A
C700        C967   1.476       .  S
C700        O704   1.273       .  A
C701       C1152   1.489       .  S
C703       C1012   1.484       .  S
C705        C995   1.484       .  S
C706        C984   1.478       .  S
C706        O707   1.272       .  A
O708        C724   1.274       .  A
O708       Zn714   2.018       .  S
C709       C1205   1.484       .  S
C709        O725   1.275       .  A
C709        O722   1.275       .  A
O710        C723   1.271       .  A
O710       Cd717   2.051       .  S
O711        C729   1.276       .  A
O711       Cd720   2.075       .  S
O712        C726   1.278       .  A
O712       Cd716   2.090       .  S
O713        C724   1.275       .  A
O713       Cd716   2.073       .  S
Zn714       O725   2.016       .  S
Zn714       O727   2.021       .  S
Zn714       O719   1.942       .  S
O715        C726   1.275       .  A
O715       Cd720   2.074       .  S
Cd716       O718   2.082       .  S
Cd716       O719   1.994       .  S
Cd717       O721   2.051       .  S
Cd717       O730   2.044       .  S
Cd717       O719   1.992       .  S
O718        C728   1.277       .  A
O719       Cd720   1.996       .  S
Cd720       O722   2.066       .  S
O721        C728   1.272       .  A
C723        C953   1.479       .  S
C723        O727   1.273       .  A
C724       C1194   1.477       .  S
C726       C1051   1.489       .  S
C728        C981   1.480       .  S
C729        C998   1.482       .  S
C729        O730   1.271       .  A
O731        C747   1.273       .  A
O731       Zn737   2.013       .  S
C732       C1247   1.487       .  S
C732        O748   1.274       .  A
C732        O745   1.275       .  A
O733        C746   1.275       .  A
O733       Cd740   2.073       .  S
O734        C752   1.274       .  A
O734       Cd743   2.072       .  S
O735        C749   1.276       .  A
O735       Cd739   2.081       .  S
O736        C747   1.274       .  A
O736       Cd739   2.067       .  S
Zn737       O748   2.010       .  S
Zn737       O750   2.010       .  S
Zn737       O742   1.939       .  S
O738        C749   1.274       .  A
O738       Cd743   2.065       .  S
Cd739       O741   2.071       .  S
Cd739       O742   1.993       .  S
Cd740       O744   2.068       .  S
Cd740       O753   2.060       .  S
Cd740       O742   2.000       .  S
O741        C751   1.276       .  A
O742       Cd743   1.996       .  S
Cd743       O745   2.071       .  S
O744        C751   1.274       .  A
C746        C911   1.480       .  S
C746        O750   1.272       .  A
C747       C1233   1.477       .  S
C749       C1180   1.482   1_545  S
C751        C939   1.494       .  S
C752        C925   1.485       .  S
C752        O753   1.274       .  A
O754        C770   1.274       .  A
O754       Zn760   2.020       .  S
C755       C1124   1.486       .  S
C755        O771   1.274       .  A
C755        O768   1.274       .  A
O756        C769   1.275       .  A
O756       Cd763   2.073       .  S
O757        C775   1.275   1_545  A
O757       Cd766   2.074   1_545  S
O758        C772   1.275       .  A
O758       Cd762   2.074   1_545  S
O759        C770   1.274       .  A
O759       Cd762   2.073       .  S
Zn760       O771   2.017       .  S
Zn760       O773   2.000       .  S
Zn760       O765   1.940       .  S
O761        C772   1.274       .  A
O761       Cd766   2.063   1_545  S
Cd762       O764   2.069   1_565  S
Cd762       O765   1.993       .  S
Cd763       O767   2.071       .  S
Cd763       O776   2.063       .  S
Cd763       O765   2.000       .  S
O764        C774   1.275   1_545  A
O765       Cd766   1.994       .  S
Cd766       O768   2.062       .  S
O767        C774   1.275       .  A
C769        C897   1.474       .  S
C769        O773   1.271       .  A
C770       C1107   1.480       .  S
C772       C1138   1.474       .  S
C774        C928   1.486   1_565  S
C775        C942   1.493   1_565  S
C775        O776   1.274       .  A
C777        C778   1.403       .  A
C777        C782   1.405       .  A
C777        C883   1.488       .  S
C778        C779   1.400       .  A
C778        H783   1.083       .  S
C779        C780   1.400       .  A
C779        C970   1.481       .  S
C780        C781   1.402       .  A
C780        H784   1.084       .  S
C781        C782   1.404       .  A
C781        C914   1.487       .  S
C782        H785   1.086       .  S
C786        C787   1.400       .  A
C786        C791   1.402       .  A
C786        C869   1.479       .  S
C787        C788   1.400       .  A
C787        H792   1.087       .  S
C788        C789   1.397       .  A
C788        C900   1.478       .  S
C789        C790   1.400       .  A
C789        H793   1.084       .  S
C790        C791   1.403       .  A
C790        C956   1.484       .  S
C791        H794   1.081       .  S
O795        C811   1.273       .  A
O795       Zn801   2.013       .  S
C796       C1037   1.493       .  S
C796        O812   1.275       .  A
C796        O809   1.277       .  A
O797        C810   1.272       .  A
O797       Cd804   2.059       .  S
O798        C816   1.277       .  A
O798       Cd807   2.086       .  S
O799        C813   1.277       .  A
O799       Cd803   2.083       .  S
O800        C811   1.278       .  A
O800       Cd803   2.094       .  S
Zn801       O812   2.016       .  S
Zn801       O814   2.013       .  S
Zn801       O806   1.943       .  S
O802        C813   1.276       .  A
O802       Cd807   2.073       .  S
Cd803       O805   2.082       .  S
Cd803       O806   1.999       .  S
Cd804       O808   2.062       .  S
Cd804       O817   2.053       .  S
Cd804       O806   1.999       .  S
O805        C815   1.277       .  A
O806       Cd807   2.005       .  S
Cd807       O809   2.082       .  S
O808        C815   1.273       .  A
C810        C872   1.473       .  S
C810        O814   1.272       .  A
C811       C1023   1.486       .  S
C813       C1219   1.480       .  S
C815        C855   1.494       .  S
C816        C844   1.488       .  S
C816        O817   1.272       .  A
O818        C834   1.275       .  A
O818       Zn824   2.031       .  S
C819       C1082   1.490       .  S
C819        O835   1.276       .  A
C819        O832   1.277       .  A
O820        C833   1.271       .  A
O820       Cd827   2.048       .  S
O821        C839   1.277       .  A
O821       Cd830   2.095       .  S
O822        C836   1.277       .  A
O822       Cd826   2.086       .  S
O823        C834   1.277       .  A
O823       Cd826   2.084       .  S
Zn824       O835   2.023       .  S
Zn824       O837   2.030       .  S
Zn824       O829   1.949       .  S
O825        C836   1.276       .  A
O825       Cd830   2.074       .  S
Cd826       O828   2.088       .  S
Cd826       O829   2.002       .  S
Cd827       O831   2.049       .  S
Cd827       O840   2.047       .  S
Cd827       O829   1.992       .  S
O828        C838   1.278       .  A
O829       Cd830   2.004       .  S
Cd830       O832   2.079       .  S
O831        C838   1.271       .  A
C833        C886   1.480       .  S
C833        O837   1.275       .  A
C834       C1068   1.485       .  S
C836       C1096   1.485       .  S
C838        C841   1.489       .  S
C839        C858   1.493       .  S
C839        O840   1.271       .  A
C841        C842   1.413       .  A
C841        C846   1.417       .  A
C842        C843   1.411       .  A
C842        C847   1.452       .  S
C843        C844   1.415       .  A
C843        C850   1.452       .  S
C844        C845   1.414       .  A
C845        C846   1.412       .  A
C845        C848   1.452       .  S
C846        C849   1.452       .  S
C847        N854   1.157       .  T
C848        N853   1.158       .  T
C849        N851   1.157       .  T
C850        N852   1.157       .  T
C855        C856   1.419       .  A
C856        C857   1.415       .  A
C856        C861   1.452       .  S
C857        C864   1.451       .  S
C858        C859   1.419       .  A
C859        C860   1.410       .  A
C859        C862   1.454       .  S
C860        C863   1.452       .  S
C861        N868   1.158       .  T
C862        N867   1.158       .  T
C863        N865   1.157       .  T
C864        N866   1.157       .  T
C869        C870   1.411       .  A
C869        C874   1.410       .  A
C870        C871   1.410       .  A
C870        C875   1.451       .  S
C871        C872   1.410       .  A
C871        C878   1.451       .  S
C872        C873   1.410       .  A
C873        C874   1.408       .  A
C873        C876   1.451       .  S
C874        C877   1.451       .  S
C875        N882   1.157       .  T
C876        N881   1.157       .  T
C877        N879   1.157       .  T
C878        N880   1.157       .  T
C883        C884   1.414       .  A
C883        C888   1.413       .  A
C884        C885   1.411       .  A
C884        C889   1.451       .  S
C885        C886   1.411       .  A
C885        C892   1.451       .  S
C886        C887   1.413       .  A
C887        C888   1.409       .  A
C887        C890   1.452       .  S
C888        C891   1.451       .  S
C889        N896   1.157       .  T
C890        N895   1.157       .  T
C891        N893   1.157       .  T
C892        N894   1.157       .  T
C897        C898   1.410       .  A
C897        C902   1.411       .  A
C898        C899   1.406       .  A
C898        C903   1.450       .  S
C899        C900   1.410       .  A
C899        C906   1.452       .  S
C900        C901   1.411       .  A
C901        C902   1.410       .  A
C901        C904   1.451       .  S
C902        C905   1.450       .  S
C903        N910   1.157       .  T
C904        N909   1.157       .  T
C905        N907   1.157       .  T
C906        N908   1.157       .  T
C911        C912   1.412       .  A
C911        C916   1.411       .  A
C912        C913   1.410       .  A
C912        C917   1.451       .  S
C913        C914   1.413       .  A
C913        C920   1.451       .  S
C914        C915   1.414       .  A
C915        C916   1.410       .  A
C915        C918   1.451       .  S
C916        C919   1.451       .  S
C917        N924   1.157       .  T
C918        N923   1.157       .  T
C919        N921   1.157       .  T
C920        N922   1.157       .  T
C925        C930   1.415       .  A
C926        C927   1.412       .  A
C926        C931   1.452       .  S
C927        C928   1.416       .  A
C927        C934   1.452       .  S
C929        C930   1.410       .  A
C929        C932   1.452   1_545  S
C930        C933   1.453       .  S
C931        N938   1.157       .  T
C932        N937   1.157       .  T
C933        N935   1.158       .  T
C934        N936   1.158       .  T
C939        C940   1.417       .  A
C939        C944   1.417       .  A
C940        C941   1.413       .  A
C940        C945   1.452       .  S
C941        C942   1.416       .  A
C941        C948   1.452       .  S
C942        C943   1.416   1_545  A
C943        C944   1.411   1_565  A
C943        C946   1.452       .  S
C944        C947   1.453   1_545  S
C945        N952   1.157       .  T
C946        N951   1.157       .  T
C947        N949   1.158       .  T
C948        N950   1.157       .  T
C953        C954   1.414       .  A
C953        C958   1.412       .  A
C954        C955   1.410       .  A
C954        C959   1.451       .  S
C955        C956   1.412       .  A
C955        C962   1.451       .  S
C956        C957   1.414       .  A
C957        C958   1.408       .  A
C957        C960   1.452       .  S
C958        C961   1.451       .  S
C959        N966   1.157       .  T
C960        N965   1.157       .  T
C961        N963   1.157       .  T
C962        N964   1.157       .  T
C967        C968   1.411       .  A
C967        C972   1.411       .  A
C968        C969   1.410       .  A
C968        C973   1.450       .  S
C969        C970   1.411       .  A
C969        C976   1.451       .  S
C970        C971   1.411       .  A
C971        C972   1.409       .  A
C971        C974   1.451       .  S
C972        C975   1.451       .  S
C973        N980   1.157       .  T
C974        N979   1.157       .  T
C975        N977   1.157       .  T
C976        N978   1.157       .  T
C981        C982   1.412       .  A
C981        C986   1.414       .  A
C982        C987   1.452       .  S
C983        C984   1.412   1_554  A
C983        C990   1.451   1_455  S
C984        C985   1.412       .  A
C985        C988   1.452       .  S
C986        C989   1.451       .  S
C987        N994   1.157       .  T
C988        N993   1.157       .  T
C989        N991   1.157       .  T
C990        N992   1.157       .  T
C995        C996   1.413       .  A
C995       C1000   1.417       .  A
C996        C997   1.409       .  A
C996       C1001   1.452       .  S
C997        C998   1.416       .  A
C997       C1004   1.453       .  S
C998        C999   1.411       .  A
C999       C1000   1.409       .  A
C999       C1002   1.452       .  S
C1000      C1003   1.453       .  S
C1001      N1008   1.157       .  T
C1002      N1007   1.157       .  T
C1003      N1005   1.158       .  T
C1004      N1006   1.158       .  T
C1009      C1010   1.413       .  A
C1009      C1014   1.413       .  A
C1010      C1011   1.413       .  A
C1010      C1015   1.450       .  S
C1011      C1012   1.411       .  A
C1011      C1018   1.450       .  S
C1012      C1013   1.413       .  A
C1013      C1014   1.412       .  A
C1013      C1016   1.452       .  S
C1014      C1017   1.450       .  S
C1015      N1022   1.157       .  T
C1016      N1021   1.157       .  T
C1017      N1019   1.157       .  T
C1018      N1020   1.157       .  T
C1023      C1024   1.411       .  A
C1024      C1029   1.450       .  S
C1025      C1026   1.416       .  A
C1025      C1032   1.450       .  S
C1026      C1027   1.417       .  A
C1027      C1028   1.412       .  A
C1027      C1030   1.452       .  S
C1028      C1031   1.452       .  S
C1029      N1036   1.157       .  T
C1030      N1035   1.157       .  T
C1031      N1033   1.157       .  T
C1032      N1034   1.157       .  T
C1037      C1038   1.418       .  A
C1037      C1042   1.414       .  A
C1038      C1039   1.411       .  A
C1038      C1043   1.453       .  S
C1039      C1040   1.413       .  A
C1039      C1046   1.450       .  S
C1040      C1041   1.415       .  A
C1041      C1042   1.414       .  A
C1041      C1044   1.451       .  S
C1042      C1045   1.450       .  S
C1043      N1050   1.157       .  T
C1044      N1049   1.157       .  T
C1045      N1047   1.157       .  T
C1046      N1048   1.157       .  T
C1051      C1052   1.413   1_455  A
C1051      C1056   1.412       .  A
C1052      C1053   1.414       .  A
C1052      C1057   1.451       .  S
C1053      C1054   1.417       .  A
C1053      C1060   1.451       .  S
C1054      C1055   1.416       .  A
C1055      C1056   1.414   1_655  A
C1055      C1058   1.451       .  S
C1056      C1059   1.450       .  S
C1057      N1064   1.157       .  T
C1058      N1063   1.157       .  T
C1059      N1061   1.157       .  T
C1060      N1062   1.157       .  T
C1065      C1066   1.416       .  A
C1065      C1070   1.415       .  A
C1066      C1067   1.410       .  A
C1066      C1071   1.452       .  S
C1067      C1068   1.411       .  A
C1067      C1074   1.452       .  S
C1068      C1069   1.412       .  A
C1069      C1070   1.416       .  A
C1069      C1072   1.450       .  S
C1070      C1073   1.450       .  S
C1071      N1078   1.157       .  T
C1072      N1077   1.157       .  T
C1073      N1075   1.157       .  T
C1074      N1076   1.157       .  T
C1079      C1080   1.414       .  A
C1079      C1084   1.413       .  A
C1080      C1081   1.411       .  A
C1080      C1085   1.452       .  S
C1081      C1088   1.452       .  S
C1082      C1083   1.414   1_556  A
C1083      C1086   1.451   1_554  S
C1084      C1087   1.451       .  S
C1085      N1092   1.157       .  T
C1086      N1091   1.157       .  T
C1087      N1089   1.157       .  T
C1088      N1090   1.158       .  T
C1093      C1094   1.415       .  A
C1093      C1098   1.416       .  A
C1094      C1095   1.412       .  A
C1094      C1099   1.451       .  S
C1095      C1096   1.412       .  A
C1095      C1102   1.452       .  S
C1096      C1097   1.411       .  A
C1097      C1098   1.413       .  A
C1097      C1100   1.451       .  S
C1098      C1101   1.451       .  S
C1099      N1106   1.157       .  T
C1100      N1105   1.157       .  T
C1101      N1103   1.157       .  T
C1102      N1104   1.157       .  T
C1107      C1112   1.410       .  A
C1108      C1109   1.409       .  A
C1108      C1113   1.451       .  S
C1109      C1110   1.416       .  A
C1109      C1116   1.452       .  S
C1110      C1111   1.414       .  A
C1111      C1114   1.450       .  S
C1112      C1115   1.450       .  S
C1113      N1120   1.157       .  T
C1114      N1119   1.157       .  T
C1115      N1117   1.157       .  T
C1116      N1118   1.157       .  T
C1121      C1122   1.413       .  A
C1121      C1126   1.413       .  A
C1122      C1123   1.409       .  A
C1122      C1127   1.452       .  S
C1123      C1124   1.416       .  A
C1123      C1130   1.453       .  S
C1124      C1125   1.415       .  A
C1125      C1126   1.411       .  A
C1125      C1128   1.452       .  S
C1126      C1129   1.451       .  S
C1127      N1134   1.157       .  T
C1128      N1133   1.157   1_565  T
C1129      N1131   1.157       .  T
C1130      N1132   1.158       .  T
C1135      C1136   1.412       .  A
C1135      C1140   1.412       .  A
C1136      C1137   1.407       .  A
C1136      C1141   1.450       .  S
C1137      C1138   1.409       .  A
C1137      C1144   1.452       .  S
C1138      C1139   1.411       .  A
C1139      C1140   1.412       .  A
C1139      C1142   1.451       .  S
C1140      C1143   1.450       .  S
C1141      N1148   1.157       .  T
C1142      N1147   1.157       .  T
C1143      N1145   1.157       .  T
C1144      N1146   1.157       .  T
C1149      C1150   1.412       .  A
C1149      C1154   1.412       .  A
C1150      C1151   1.413       .  A
C1150      C1155   1.450       .  S
C1151      C1152   1.415       .  A
C1151      C1158   1.451   1_655  S
C1152      C1153   1.417       .  A
C1153      C1154   1.410       .  A
C1153      C1156   1.452       .  S
C1154      C1157   1.451       .  S
C1155      N1162   1.157       .  T
C1156      N1161   1.157       .  T
C1157      N1159   1.157       .  T
C1158      N1160   1.157       .  T
C1163      C1164   1.412       .  A
C1163      C1168   1.413       .  A
C1164      C1165   1.411       .  A
C1164      C1169   1.451       .  S
C1166      C1167   1.418       .  A
C1167      C1170   1.453       .  S
C1168      C1171   1.451       .  S
C1169      N1176   1.157       .  T
C1170      N1175   1.157       .  T
C1171      N1173   1.157       .  T
C1172      N1174   1.157       .  T
C1177      C1178   1.415       .  A
C1177      C1182   1.415       .  A
C1178      C1179   1.410       .  A
C1178      C1183   1.452       .  S
C1179      C1180   1.412       .  A
C1179      C1186   1.452       .  S
C1180      C1181   1.411       .  A
C1181      C1182   1.412       .  A
C1181      C1184   1.451   1_565  S
C1182      C1185   1.451       .  S
C1183      N1190   1.157       .  T
C1184      N1189   1.157       .  T
C1185      N1187   1.157       .  T
C1186      N1188   1.157       .  T
C1191      C1192   1.413       .  A
C1191      C1196   1.415       .  A
C1192      C1197   1.450       .  S
C1193      C1194   1.410       .  A
C1193      C1200   1.450       .  S
C1195      C1196   1.409       .  A
C1195      C1198   1.452       .  S
C1196      C1199   1.452       .  S
C1197      N1204   1.157       .  T
C1199      N1201   1.157       .  T
C1200      N1202   1.157       .  T
C1205      C1206   1.415       .  A
C1205      C1210   1.414       .  A
C1206      C1207   1.408       .  A
C1206      C1211   1.452       .  S
C1207      C1208   1.412       .  A
C1207      C1214   1.452       .  S
C1208      C1209   1.411       .  A
C1209      C1210   1.411       .  A
C1209      C1212   1.451       .  S
C1210      C1213   1.451       .  S
C1211      N1218   1.158       .  T
C1212      N1217   1.157       .  T
C1213      N1215   1.157       .  T
C1214      N1216   1.157       .  T
C1219      C1220   1.411       .  A
C1219      C1224   1.412       .  A
C1220      C1221   1.412       .  A
C1220      C1225   1.450       .  S
C1221      C1222   1.411       .  A
C1221      C1228   1.450       .  S
C1222      C1223   1.411       .  A
C1223      C1224   1.411       .  A
C1223      C1226   1.450       .  S
C1224      C1227   1.451       .  S
C1225      N1232   1.157       .  T
C1226      N1231   1.157       .  T
C1227      N1229   1.157       .  T
C1228      N1230   1.157       .  T
C1233      C1234   1.411       .  A
C1233      C1238   1.410       .  A
C1234      C1235   1.407       .  A
C1234      C1239   1.453       .  S
C1235      C1236   1.416       .  A
C1235      C1242   1.452       .  S
C1236      C1237   1.416       .  A
C1237      C1238   1.412       .  A
C1237      C1240   1.451       .  S
C1238      C1241   1.450       .  S
C1239      N1246   1.157       .  T
C1240      N1245   1.157       .  T
C1241      N1243   1.157       .  T
C1242      N1244   1.157       .  T
C1247      C1252   1.414   1_556  A
C1248      C1249   1.409       .  A
C1248      C1253   1.454       .  S
C1249      C1250   1.414       .  A
C1249      C1256   1.451       .  S
C1250      C1251   1.414       .  A
C1251      C1254   1.451       .  S
C1252      C1255   1.451   1_554  S
C1253      N1260   1.158       .  T
C1254      N1259   1.157       .  T
C1255      N1257   1.157       .  T
C1256      N1258   1.157       .  T
