geometry optimzed in LAMMPS
_audit_creation_date              2020-11-30 
_audit_creation_method            'lammps2cif' 
_symmetry_space_group_name_H-M    'P1' 
_symmetry_Int_Tables_number       1 
_symmetry_cell_setting            triclinic 
loop_ 
_symmetry_equiv_pos_as_xyz 
  x,y,z 
_cell_length_a                    44.18132031 
_cell_length_b                    44.176903967724165 
_cell_length_c                    44.28237775685244 
_cell_angle_alpha                 89.83175378805562 
_cell_angle_beta                  90.01764591990498 
_cell_angle_gamma                 89.55974990406854 
loop_ 
_atom_site_label 
_atom_site_type_symbol 
_atom_site_fract_x 
_atom_site_fract_y 
_atom_site_fract_z 
_atom_site_charge 
O1          O  0.45411851  0.00097410  0.02574703    -0.73000
O2          O  0.04505243  0.00140732  0.02549874    -0.73900
O3          O  0.99925882  0.04695684  0.02610484    -0.62600
O4          O  0.50036458  0.45599498  0.02486851    -0.71000
O5          O  0.49920843  0.45690118  0.47480674    -0.70500
O6          O  0.99909810  0.04760551  0.47606623    -0.61800
O7          O  0.04457568  0.50236309  0.47542172    -0.74300
O8          O  0.45378309  0.50291124  0.47565634    -0.73100
Cu9        Cu  0.99965207  0.00132750  0.02731556     1.04600
Cu10       Cu  0.49914788  0.50243752  0.47376591     1.04300
C11         C  0.43963207  0.00196792  0.00077254     0.93200
C12         C  0.05916967  0.50199154  0.00034769     0.92400
C13         C  0.49921954  0.06169733  0.00119093     0.84500
C14         C  0.00001311  0.44206094  0.99961844     0.90800
O15         O  0.99774533  0.45285525  0.22532330    -0.73000
O16         O  0.99997155  0.04384042  0.22593236    -0.73900
O17         O  0.04361936  0.99662901  0.22579850    -0.62600
O18         O  0.45303167  0.49990720  0.22498050    -0.71000
O19         O  0.45222632  0.49760173  0.27505920    -0.70500
O20         O  0.04330046  0.99807632  0.27592573    -0.61800
O21         O  0.49739359  0.04332174  0.27596386    -0.74300
O22         O  0.49791871  0.45253406  0.27546857    -0.73100
Cu23       Cu  0.99849891  0.99834463  0.22375821     1.04600
Cu24       Cu  0.49765994  0.49787922  0.27737221     1.04300
C25         C  0.99808710  0.43838261  0.25036240     0.93200
C26         C  0.49932869  0.05793563  0.25110500     0.92400
C27         C  0.05775676  0.49706812  0.25092816     0.84500
C28         C  0.43829501  0.99887357  0.24977708     0.90800
O29         O  0.02713095  0.20603134  0.00302570    -0.73000
O30         O  0.02706183  0.29691878  0.00213255    -0.73900
O31         O  0.02705062  0.25149331  0.04749462    -0.62600
O32         O  0.02714798  0.25093714  0.45709108    -0.71000
O33         O  0.47695515  0.25185876  0.45655932    -0.70500
O34         O  0.47693134  0.25187896  0.04707618    -0.61800
O35         O  0.47678448  0.29737329  0.50112403    -0.74300
O36         O  0.47683477  0.20665682  0.50174763    -0.73100
Cu37       Cu  0.02885636  0.25139481  0.00240871     1.04600
Cu38       Cu  0.47512038  0.25199271  0.50168593     1.04300
C39         C  0.50191215  0.19213642  0.00248629     0.93200
C40         C  0.50193247  0.31141447  0.50137736     0.92400
C41         C  0.50189702  0.25133563  0.06169563     0.84500
C42         C  0.50218048  0.25106603  0.44249306     0.90800
O43         O  0.02706495  0.29392110  0.25197072    -0.73000
O44         O  0.02863081  0.20278940  0.25243220    -0.73900
O45         O  0.02840979  0.24829550  0.20727655    -0.62600
O46         O  0.02732571  0.24848936  0.29777333    -0.71000
O47         O  0.47713113  0.24901684  0.29742089    -0.70500
O48         O  0.47830378  0.24748237  0.20703556    -0.61800
O49         O  0.47837883  0.20279979  0.25347104    -0.74300
O50         O  0.47680024  0.29341746  0.25182150    -0.73100
Cu51       Cu  0.02963907  0.24838089  0.25241826     1.04600
Cu52       Cu  0.47593206  0.24812474  0.25235692     1.04300
C53         C  0.50165385  0.30795887  0.25189440     0.93200
C54         C  0.50360236  0.18849516  0.25320222     0.92400
C55         C  0.50345696  0.24787322  0.19274393     0.84500
C56         C  0.50209809  0.24910518  0.31192792     0.90800
O57         O  0.20362872  0.02604113  0.49735018    -0.73000
O58         O  0.29429489  0.02719283  0.49816152    -0.73900
O59         O  0.24951575  0.02542363  0.45264452    -0.62600
O60         O  0.24847554  0.02733803  0.04326843    -0.71000
O61         O  0.25008314  0.47719142  0.04428334    -0.70500
O62         O  0.24980403  0.47529237  0.45400709    -0.61800
O63         O  0.29531223  0.47696055  0.99957298    -0.74300
O64         O  0.20436102  0.47583649  0.99993072    -0.73100
Cu65       Cu  0.24891894  0.02825449  0.49781270     1.04600
Cu66       Cu  0.24990465  0.47457194  0.99941250     1.04300
C67         C  0.18972161  0.50087442  0.49892483     0.93200
C68         C  0.30910721  0.50227889  0.99905043     0.92400
C69         C  0.24995290  0.50002158  0.43894041     0.84500
C70         C  0.24929805  0.50248495  0.05812717     0.90800
O71         O  0.29331657  0.02333859  0.24748102    -0.73000
O72         O  0.20245218  0.02339801  0.24982398    -0.73900
O73         O  0.24900123  0.02238776  0.29381313    -0.62600
O74         O  0.24702355  0.02442697  0.20349141    -0.71000
O75         O  0.24929269  0.47429601  0.20277061    -0.70500
O76         O  0.24730716  0.47228661  0.29337198    -0.61800
O77         O  0.20276384  0.47326603  0.24693821    -0.74300
O78         O  0.29354623  0.47309237  0.24918574    -0.73100
Cu79       Cu  0.24789005  0.02513083  0.24867167     1.04600
Cu80       Cu  0.24819274  0.47147186  0.24799675     1.04300
C81         C  0.30774683  0.49816017  0.24844890     0.93200
C82         C  0.18826840  0.49834039  0.24862205     0.92400
C83         C  0.24839213  0.49715514  0.30799285     0.84500
C84         C  0.24853309  0.49963840  0.18877453     0.90800
C85         C  0.25045310  0.49914761  0.40544719    -0.05500
C86         C  0.24270827  0.47236972  0.39031154    -0.32900
C87         C  0.24208466  0.47116993  0.35870039     0.36300
C88         C  0.24925231  0.49710436  0.34150241    -0.05800
C89         C  0.25756737  0.02365377  0.35668567    -0.32800
C90         C  0.25854400  0.02473824  0.38821204     0.36200
H91         H  0.23668206  0.45229524  0.40299725     0.16600
O92         O  0.23430808  0.44453738  0.34499195    -0.60300
H93         H  0.26374935  0.04373519  0.34408683     0.16600
O94         O  0.26776123  0.05094507  0.40183303    -0.60400
H95         H  0.28995708  0.04856080  0.40444989     0.43600
H96         H  0.21191942  0.44519517  0.34341242     0.43600
C97         C  0.24955456  0.50254485  0.09153889    -0.05500
C98         C  0.25918699  0.47637207  0.10699508    -0.32900
C99         C  0.25951752  0.47528215  0.13851121     0.36300
C100        C  0.24938751  0.50042735  0.15535967    -0.05800
C101        C  0.24017539  0.02679426  0.13992887    -0.32800
C102        C  0.24021671  0.02800999  0.10834470     0.36200
H103        H  0.26694813  0.45666591  0.09462024     0.16600
O104        O  0.27020371  0.44960187  0.15250943    -0.60300
H105        H  0.23252425  0.04650415  0.15235661     0.16600
O106        O  0.23084021  0.05413770  0.09425829    -0.60400
H107        H  0.20869741  0.05187400  0.09151846     0.43600
H108        H  0.29216221  0.45308176  0.15542903     0.43600
C109        C  0.50235590  0.25035335  0.40911011    -0.05500
C110        C  0.47724723  0.26160040  0.39305543    -0.32900
C111        C  0.47688891  0.26151427  0.36147270     0.36300
C112        C  0.50185277  0.24979056  0.34530682    -0.05800
C113        C  0.02690192  0.23845483  0.36136765    -0.32800
C114        C  0.02718530  0.23839658  0.39294220     0.36200
H115        H  0.45793441  0.27093519  0.40500290     0.16600
O116        O  0.45215080  0.27329864  0.34670668    -0.60300
H117        H  0.04617315  0.22903983  0.34941971     0.16600
O118        O  0.05164582  0.22604406  0.40770103    -0.60400
H119        H  0.04619914  0.20461914  0.41144261     0.43600
H120        H  0.45628599  0.29523493  0.34459312     0.43600
C121        C  0.50193896  0.25022012  0.09522208    -0.05500
C122        C  0.02961288  0.24774014  0.11076814    -0.32900
C123        C  0.03058369  0.24679238  0.14234177     0.36300
C124        C  0.50347983  0.24816781  0.15920884    -0.05800
C125        C  0.47582152  0.25030633  0.14364650    -0.32800
C126        C  0.47485464  0.25122437  0.11209213     0.36200
H127        H  0.05077403  0.24654657  0.09845919     0.16600
O128        O  0.05819093  0.24404493  0.15631224    -0.60300
H129        H  0.45465451  0.25144624  0.15594326     0.16600
O130        O  0.44722896  0.25366287  0.09813587    -0.60400
H131        H  0.43993143  0.23257913  0.09620195     0.43600
H132        H  0.06595470  0.26499395  0.15781913     0.43600
C133        C  0.09107524  0.49674600  0.25082966    -0.05500
C134        C  0.10688327  0.01735323  0.26879430    -0.32900
C135        C  0.13853542  0.01858166  0.26774049     0.36300
C136        C  0.15485723  0.49822695  0.24934852    -0.05800
C137        C  0.13899215  0.47711011  0.23192512    -0.32800
C138        C  0.10731003  0.47663489  0.23215906     0.36200
H139        H  0.09462699  0.03299591  0.28319535     0.16600
O140        O  0.15335575  0.03894071  0.28567126    -0.60300
H141        H  0.15118205  0.46121443  0.21774645     0.16600
O142        O  0.09242921  0.45566762  0.21497648    -0.60400
H143        H  0.09110557  0.46472279  0.19449175     0.43600
H144        H  0.15288162  0.05826999  0.27422088     0.43600
C145        C  0.34109557  0.49808339  0.24878122    -0.05500
C146        C  0.35690193  0.01761732  0.22946260    -0.32900
C147        C  0.38859288  0.01781401  0.22931341     0.36300
C148        C  0.40491228  0.49885691  0.24925456    -0.05800
C149        C  0.38906133  0.47970892  0.26892415    -0.32800
C150        C  0.35738686  0.47883943  0.26841269     0.36200
H151        H  0.34463815  0.03247717  0.21417556     0.16600
O152        O  0.40338400  0.03690328  0.20990617    -0.60300
H153        H  0.40129151  0.46502863  0.28440730     0.16600
O154        O  0.34251878  0.46006326  0.28807189    -0.60400
H155        H  0.34225017  0.44003877  0.27800823     0.43600
H156        H  0.40701291  0.05558805  0.22168709     0.43600
C157        C  0.99897164  0.40502560  0.25042852    -0.05500
C158        C  0.48117140  0.38895556  0.27114975    -0.32900
C159        C  0.48182125  0.35728011  0.27175399     0.36300
C160        C  0.00090840  0.34127071  0.25184987    -0.05800
C161        C  0.01926022  0.35732014  0.23165440    -0.32800
C162        C  0.01806821  0.38899216  0.23053738     0.36200
H163        H  0.46651901  0.40100142  0.28671583     0.16600
O164        O  0.46411830  0.34218526  0.29221131    -0.60300
H165        H  0.03419945  0.34524588  0.21638374     0.16600
O166        O  0.03666349  0.40412021  0.21092508    -0.60400
H167        H  0.02582417  0.40413270  0.19131066     0.43600
H168        H  0.47732098  0.33875205  0.31003263     0.43600
C169        C  0.50101131  0.09136461  0.25165094    -0.05500
C170        C  0.48534007  0.10755031  0.27406099    -0.32900
C171        C  0.48611009  0.13922417  0.27477588     0.36300
C172        C  0.50357952  0.15515736  0.25355573    -0.05800
C173        C  0.02015262  0.13904341  0.23182736    -0.32800
C174        C  0.01854756  0.10739345  0.23041806     0.36200
H175        H  0.47196741  0.09564273  0.29074148     0.16600
O176        O  0.47050925  0.15441183  0.29689701    -0.60300
H177        H  0.03373712  0.15107803  0.21540636     0.16600
O178        O  0.03501494  0.09229625  0.20887121    -0.60400
H179        H  0.02245512  0.09324900  0.19031751     0.43600
H180        H  0.44942782  0.15606047  0.28933586     0.43600
C181        C  0.09262142  0.50205847  0.50006754    -0.05500
C182        C  0.10879145  0.48648575  0.02269667    -0.32900
C183        C  0.14049585  0.48560821  0.02236847     0.36300
C184        C  0.15644346  0.50090865  0.49952676    -0.05800
C185        C  0.14040082  0.01712589  0.47742391    -0.32800
C186        C  0.10872965  0.01740251  0.47727171     0.36200
H187        H  0.09681658  0.47460540  0.04043187     0.16600
O188        O  0.15567964  0.47014832  0.04469294    -0.60300
H189        H  0.15248738  0.02929235  0.45995552     0.16600
O190        O  0.09375406  0.03370575  0.45541806    -0.60400
H191        H  0.09326784  0.02027672  0.43751465     0.43600
H192        H  0.16056356  0.48558607  0.06013201     0.43600
C193        C  0.34244815  0.50268157  0.99965759    -0.05500
C194        C  0.35815967  0.48306189  0.01921745    -0.32900
C195        C  0.38983674  0.48295468  0.02015914     0.36300
C196        C  0.40625896  0.00216681  0.00082737    -0.05800
C197        C  0.39053421  0.02154630  0.48103781    -0.32800
C198        C  0.35884577  0.02232842  0.48077563     0.36200
H199        H  0.34581135  0.46796847  0.03400936     0.16600
O200        O  0.40452308  0.46359417  0.03961525    -0.60300
H201        H  0.40286907  0.03642682  0.46602034     0.16600
O202        O  0.34411978  0.04141301  0.46107979    -0.60400
H203        H  0.34310487  0.06121234  0.47154967     0.43600
H204        H  0.40835863  0.44494205  0.02776751     0.43600
C205        C  0.00078930  0.40855019  0.49934637    -0.05500
C206        C  0.01472839  0.39290671  0.02336001    -0.32900
C207        C  0.01578182  0.36123731  0.02387985     0.36300
C208        C  0.00191507  0.34468900  0.50071295    -0.05800
C209        C  0.48781801  0.36012174  0.47677152    -0.32800
C210        C  0.48755486  0.39182861  0.47571449     0.36200
H211        H  0.02514026  0.40526769  0.04167806     0.16600
O212        O  0.02931177  0.34662802  0.04775356    -0.60300
H213        H  0.47726976  0.34752192  0.45868665     0.16600
O214        O  0.47403114  0.40615800  0.45166625    -0.60400
H215        H  0.45280376  0.40981251  0.45802506     0.43600
H216        H  0.05102600  0.34505641  0.04226067     0.43600
C217        C  0.50162698  0.15899439  0.00232431    -0.05500
C218        C  0.49169206  0.14391766  0.47647724    -0.32900
C219        C  0.49089061  0.11229883  0.47571205     0.36300
C220        C  0.49966692  0.09524630  0.00137711    -0.05800
C221        C  0.00937143  0.11062610  0.02738006    -0.32800
C222        C  0.01075176  0.14227909  0.02780419     0.36200
H223        H  0.48472796  0.15673996  0.45672066     0.16600
O224        O  0.48142101  0.09840838  0.44974865    -0.60300
H225        H  0.01628813  0.09810643  0.04732369     0.16600
O226        O  0.02006256  0.15672180  0.05352525    -0.60400
H227        H  0.04227543  0.15888768  0.05128009     0.43600
H228        H  0.45919831  0.09636502  0.45198935     0.43600
O229        O  0.45411936  0.00097385  0.52574696    -0.73000
O230        O  0.04505332  0.00140572  0.52550003    -0.73900
O231        O  0.99925998  0.04695597  0.52610507    -0.62600
O232        O  0.50036454  0.45599475  0.52486950    -0.71000
O233        O  0.49920784  0.45690165  0.97480578    -0.70500
O234        O  0.99909685  0.04760648  0.97606597    -0.61800
O235        O  0.04457521  0.50236331  0.97542125    -0.74300
O236        O  0.45378273  0.50291191  0.97565577    -0.73100
Cu237      Cu  0.99965285  0.00132657  0.52731613     1.04600
Cu238      Cu  0.49914744  0.50243798  0.97376535     1.04300
C239        C  0.43963324  0.00196743  0.50077230     0.93200
C240        C  0.05916993  0.50199089  0.50034827     0.92400
C241        C  0.49922072  0.06169644  0.50119112     0.84500
C242        C  0.00001310  0.44206060  0.49961952     0.90800
O243        O  0.99774371  0.45285583  0.72532416    -0.73000
O244        O  0.99997226  0.04384098  0.72593189    -0.73900
O245        O  0.04361894  0.99662861  0.72579893    -0.62600
O246        O  0.45303078  0.49990877  0.72498062    -0.71000
O247        O  0.45222533  0.49760372  0.77505936    -0.70500
O248        O  0.04329953  0.99807618  0.77592615    -0.61800
O249        O  0.49739341  0.04332235  0.77596335    -0.74300
O250        O  0.49791663  0.45253501  0.77546947    -0.73100
Cu251      Cu  0.99849861  0.99834501  0.72375812     1.04600
Cu252      Cu  0.49765886  0.49788027  0.77737247     1.04300
C253        C  0.99808526  0.43838342  0.75036339     0.93200
C254        C  0.49932927  0.05793623  0.75110456     0.92400
C255        C  0.05775579  0.49706743  0.75092902     0.84500
C256        C  0.43829446  0.99887469  0.74977570     0.90800
O257        O  0.02713024  0.20603095  0.50302605    -0.73000
O258        O  0.02705998  0.29691842  0.50213310    -0.73900
O259        O  0.02704876  0.25149276  0.54749498    -0.62600
O260        O  0.02714896  0.25093760  0.95709078    -0.71000
O261        O  0.47695621  0.25185993  0.95655923    -0.70500
O262        O  0.47692932  0.25187806  0.54707637    -0.61800
O263        O  0.47678651  0.29737411  0.00112386    -0.74300
O264        O  0.47683555  0.20665790  0.00174726    -0.73100
Cu265      Cu  0.02885500  0.25139442  0.50240911     1.04600
Cu266      Cu  0.47512189  0.25199372  0.00168577     1.04300
C267        C  0.50191158  0.19213567  0.50248669     0.93200
C268        C  0.50193461  0.31141505  0.00137682     0.92400
C269        C  0.50189497  0.25133481  0.56169587     0.84500
C270        C  0.50218147  0.25106697  0.94249288     0.90800
O271        O  0.02706449  0.29392208  0.75197037    -0.73000
O272        O  0.02863140  0.20279034  0.75243233    -0.73900
O273        O  0.02840900  0.24829600  0.70727630    -0.62600
O274        O  0.02732630  0.24849074  0.79777309    -0.71000
O275        O  0.47713171  0.24901745  0.79742104    -0.70500
O276        O  0.47830298  0.24748254  0.70703600    -0.61800
O277        O  0.47837943  0.20280022  0.75347150    -0.74300
O278        O  0.47679989  0.29341793  0.75182168    -0.73100
Cu279      Cu  0.02963906  0.24838187  0.75241804     1.04600
Cu280      Cu  0.47593208  0.24812517  0.75235725     1.04300
C281        C  0.50165332  0.30795968  0.75189440     0.93200
C282        C  0.50360311  0.18849584  0.75320252     0.92400
C283        C  0.50345596  0.24787325  0.69274406     0.84500
C284        C  0.50209876  0.24910630  0.81192787     0.90800
O285        O  0.20362787  0.02604289  0.99735053    -0.73000
O286        O  0.29429407  0.02719270  0.99816281    -0.73900
O287        O  0.24951551  0.02542563  0.95264516    -0.62600
O288        O  0.24847690  0.02733832  0.54326759    -0.71000
O289        O  0.25008265  0.47718641  0.54428285    -0.70500
O290        O  0.24980344  0.47529664  0.95400793    -0.61800
O291        O  0.29531268  0.47695608  0.49957273    -0.74300
O292        O  0.20436115  0.47583160  0.49992944    -0.73100
Cu293      Cu  0.24891815  0.02825535  0.99781353     1.04600
Cu294      Cu  0.24990489  0.47456722  0.49941177     1.04300
C295        C  0.18972149  0.50087929  0.99892570     0.93200
C296        C  0.30910746  0.50227455  0.49905034     0.92400
C297        C  0.24995263  0.50002558  0.93894084     0.84500
C298        C  0.24929703  0.50247988  0.55812686     0.90800
O299        O  0.29331656  0.02333860  0.74747953    -0.73000
O300        O  0.20245190  0.02339988  0.74982355    -0.73900
O301        O  0.24900182  0.02238969  0.79381241    -0.62600
O302        O  0.24702316  0.02442772  0.70349070    -0.71000
O303        O  0.24929082  0.47429376  0.70277182    -0.70500
O304        O  0.24730713  0.47228693  0.79337321    -0.61800
O305        O  0.20276296  0.47326448  0.74694024    -0.74300
O306        O  0.29354543  0.47309218  0.74918621    -0.73100
Cu307      Cu  0.24789001  0.02513195  0.74867083     1.04600
Cu308      Cu  0.24819188  0.47147094  0.74799803     1.04300
C309        C  0.30774574  0.49816014  0.74844877     0.93200
C310        C  0.18826730  0.49833873  0.74862361     0.92400
C311        C  0.24839210  0.49715584  0.80799341     0.84500
C312        C  0.24853057  0.49963564  0.68877487     0.90800
C313        C  0.25045310  0.49915080  0.90544766    -0.05500
C314        C  0.24270819  0.47237253  0.89031265    -0.32900
C315        C  0.24208483  0.47117191  0.85870155     0.36300
C316        C  0.24925271  0.49710584  0.84150295    -0.05800
C317        C  0.25756515  0.02365721  0.85668559    -0.32800
C318        C  0.25854150  0.02474185  0.88821205     0.36200
H319        H  0.23668172  0.45229843  0.90299881     0.16600
O320        O  0.23430826  0.44453902  0.84499374    -0.60300
H321        H  0.26374460  0.04373944  0.84408675     0.16600
O322        O  0.26775552  0.05094983  0.90183306    -0.60400
H323        H  0.28995160  0.04856822  0.90445002     0.43600
H324        H  0.21191959  0.44519666  0.84341435     0.43600
C325        C  0.24955205  0.50253986  0.59153874    -0.05500
C326        C  0.25917980  0.47636576  0.60699555    -0.32900
C327        C  0.25950987  0.47527627  0.63851171     0.36300
C328        C  0.24938414  0.50042346  0.65535980    -0.05800
C329        C  0.24017440  0.02679454  0.63992817    -0.32800
C330        C  0.24021687  0.02801046  0.60834401     0.36200
H331        H  0.26693785  0.45665812  0.59462118     0.16600
O332        O  0.27019158  0.44959435  0.65251029    -0.60300
H333        H  0.23252087  0.04650360  0.65235579     0.16600
O334        O  0.23083904  0.05413755  0.59425734    -0.60400
H335        H  0.20869632  0.05187281  0.59151767     0.43600
H336        H  0.29215079  0.45307024  0.65542949     0.43600
C337        C  0.50235680  0.25035451  0.90910994    -0.05500
C338        C  0.47724764  0.26160057  0.89305537    -0.32900
C339        C  0.47688919  0.26151431  0.86147265     0.36300
C340        C  0.50185357  0.24979177  0.84530672    -0.05800
C341        C  0.02690317  0.23845716  0.86136744    -0.32800
C342        C  0.02718658  0.23839869  0.89294198     0.36200
H343        H  0.45793447  0.27093451  0.90500291     0.16600
O344        O  0.45215037  0.27329726  0.84670671    -0.60300
H345        H  0.04617477  0.22904299  0.84941941     0.16600
O346        O  0.05164750  0.22604685  0.90770067    -0.60400
H347        H  0.04620139  0.20462178  0.91144233     0.43600
H348        H  0.45628476  0.29523363  0.84459227     0.43600
C349        C  0.50193695  0.25021913  0.59522229    -0.05500
C350        C  0.02961090  0.24773790  0.61076813    -0.32900
C351        C  0.03058200  0.24679034  0.64234171     0.36300
C352        C  0.50347835  0.24816720  0.65920899    -0.05800
C353        C  0.47581994  0.25030674  0.64364692    -0.32800
C354        C  0.47485279  0.25122467  0.61209253     0.36200
H355        H  0.05077192  0.24654318  0.59845901     0.16600
O356        O  0.05818924  0.24404153  0.65631195    -0.60300
H357        H  0.45465311  0.25144781  0.65594391     0.16600
O358        O  0.44722712  0.25366465  0.59813648    -0.60400
H359        H  0.43992811  0.23258138  0.59620326     0.43600
H360        H  0.06595428  0.26499009  0.65781839     0.43600
C361        C  0.09107423  0.49674465  0.75083112    -0.05500
C362        C  0.10688236  0.01735440  0.76879412    -0.32900
C363        C  0.13853451  0.01858369  0.76773978     0.36300
C364        C  0.15485619  0.49822499  0.74935050    -0.05800
C365        C  0.13899109  0.47710798  0.73192731    -0.32800
C366        C  0.10730898  0.47663298  0.73216111     0.36200
H367        H  0.09462585  0.03299723  0.78319480     0.16600
O368        O  0.15335456  0.03894368  0.78566968    -0.60300
H369        H  0.15118095  0.46121211  0.71774881     0.16600
O370        O  0.09242806  0.45566550  0.71497887    -0.60400
H371        H  0.09110443  0.46472033  0.69449397     0.43600
H372        H  0.15288000  0.05827251  0.77421857     0.43600
C373        C  0.34109463  0.49808391  0.74878121    -0.05500
C374        C  0.35690133  0.01761764  0.72946089    -0.32900
C375        C  0.38859225  0.01781473  0.72931181     0.36300
C376        C  0.40491140  0.49885849  0.74925481    -0.05800
C377        C  0.38906083  0.47970723  0.76892148    -0.32800
C378        C  0.35738634  0.47883727  0.76840985     0.36200
H379        H  0.34463742  0.03247821  0.71417464     0.16600
O380        O  0.40338320  0.03690487  0.70990528    -0.60300
H381        H  0.40129135  0.46502483  0.78440236     0.16600
O382        O  0.34251867  0.46005784  0.78806620    -0.60400
H383        H  0.34225094  0.44003476  0.77799973     0.43600
H384        H  0.40701189  0.05558923  0.72168687     0.43600
C385        C  0.99897022  0.40502651  0.75042958    -0.05500
C386        C  0.48116598  0.38895607  0.77114699    -0.32900
C387        C  0.48181621  0.35728058  0.77175097     0.36300
C388        C  0.00090750  0.34127161  0.75185039    -0.05800
C389        C  0.01926331  0.35732162  0.73165899    -0.32800
C390        C  0.01807119  0.38899360  0.73054227     0.36200
H391        H  0.46651030  0.40100163  0.78671025     0.16600
O392        O  0.46410949  0.34218532  0.79220470    -0.60300
H393        H  0.03420591  0.34524782  0.71639117     0.16600
O394        O  0.03667068  0.40412225  0.71093438    -0.60400
H395        H  0.02583554  0.40413541  0.69131769     0.43600
H396        H  0.47730835  0.33875326  0.81002903     0.43600
C397        C  0.50101243  0.09136519  0.75165086    -0.05500
C398        C  0.48533894  0.10755089  0.77405933    -0.32900
C399        C  0.48610903  0.13922472  0.77477448     0.36300
C400        C  0.50358062  0.15515796  0.75355616    -0.05800
C401        C  0.02015617  0.13904390  0.73182955    -0.32800
C402        C  0.01855111  0.10739389  0.73041991     0.36200
H403        H  0.47196437  0.09564331  0.79073829     0.16600
O404        O  0.47050584  0.15441232  0.79689402    -0.60300
H405        H  0.03374257  0.15107850  0.71541010     0.16600
O406        O  0.03502098  0.09229653  0.70887504    -0.60400
H407        H  0.02246344  0.09324938  0.69031979     0.43600
H408        H  0.44942509  0.15606049  0.78933089     0.43600
C409        C  0.09262136  0.50206015  0.00006697    -0.05500
C410        C  0.10879103  0.48647399  0.52269067    -0.32900
C411        C  0.14049539  0.48559493  0.52236159     0.36300
C412        C  0.15644348  0.50091313  0.99952760    -0.05800
C413        C  0.14040018  0.01711865  0.97741661    -0.32800
C414        C  0.10872901  0.01739481  0.97726395     0.36200
H415        H  0.09681575  0.47458690  0.54042109     0.16600
O416        O  0.15567869  0.47012505  0.54467958    -0.60300
H417        H  0.15248694  0.02927796  0.95994341     0.16600
O418        O  0.09375380  0.03368862  0.95540314    -0.60400
H419        H  0.09326842  0.02025204  0.93750535     0.43600
H420        H  0.16056439  0.48555628  0.56012457     0.43600
C421        C  0.34244843  0.50267779  0.49965741    -0.05500
C422        C  0.35816048  0.48305909  0.51921780    -0.32900
C423        C  0.38983754  0.48295320  0.52015995     0.36300
C424        C  0.40626019  0.00216675  0.50082694    -0.05800
C425        C  0.39053270  0.02154397  0.98103609    -0.32800
C426        C  0.35884428  0.02232560  0.98077381     0.36200
H427        H  0.34581256  0.46796554  0.53400994     0.16600
O428        O  0.40452439  0.46359387  0.53961683    -0.60300
H429        H  0.40286733  0.03642295  0.96601692     0.16600
O430        O  0.34411800  0.04140744  0.96107552    -0.60400
H431        H  0.34310299  0.06120819  0.97154267     0.43600
H432        H  0.40836174  0.44494189  0.52776939     0.43600
C433        C  0.00079015  0.40855059  0.99934517    -0.05500
C434        C  0.01472694  0.39290594  0.52336129    -0.32900
C435        C  0.01577972  0.36123649  0.52388099     0.36300
C436        C  0.00191720  0.34468948  0.00071203    -0.05800
C437        C  0.48781988  0.36012184  0.97677052    -0.32800
C438        C  0.48755615  0.39182866  0.97571334     0.36200
H439        H  0.02513900  0.40526663  0.54167945     0.16600
O440        O  0.02930932  0.34662684  0.54775470    -0.60300
H441        H  0.47727170  0.34752174  0.95868578     0.16600
O442        O  0.47403218  0.40615768  0.95166501    -0.60400
H443        H  0.45280431  0.40981030  0.95802317     0.43600
H444        H  0.05102352  0.34505477  0.54226186     0.43600
C445        C  0.50162693  0.15899363  0.50232464    -0.05500
C446        C  0.49168867  0.14391854  0.97647814    -0.32900
C447        C  0.49088673  0.11229974  0.97571305     0.36300
C448        C  0.49966790  0.09524545  0.50137721    -0.05800
C449        C  0.00936917  0.11062546  0.52738130    -0.32800
C450        C  0.01074898  0.14227848  0.52780559     0.36200
H451        H  0.48472229  0.15674091  0.95672239     0.16600
O452        O  0.48141361  0.09840941  0.94975088    -0.60300
H453        H  0.01628363  0.09810596  0.54732582     0.16600
O454        O  0.02005669  0.15672133  0.55352770    -0.60400
H455        H  0.04226980  0.15888729  0.55128516     0.43600
H456        H  0.45919129  0.09636531  0.95199494     0.43600
O457        O  0.45411322  0.50096701  0.02575670    -0.73000
O458        O  0.04504717  0.50141252  0.02551078    -0.73900
O459        O  0.99924496  0.54695624  0.02610968    -0.62600
O460        O  0.50036442  0.95599651  0.02485679    -0.71000
O461        O  0.49920335  0.95689985  0.47479467    -0.70500
O462        O  0.99908221  0.54760169  0.47607073    -0.61800
O463        O  0.04457986  0.00235524  0.47541052    -0.74300
O464        O  0.45378781  0.00292261  0.47564627    -0.73100
Cu465      Cu  0.99964654  0.50132637  0.02732534     1.04600
Cu466      Cu  0.49915279  0.00243924  0.47375596     1.04300
C467        C  0.43962779  0.50195785  0.00078168     0.93200
C468        C  0.05917401  0.00198315  0.00033502     0.92400
C469        C  0.49919863  0.56169480  0.00119460     0.84500
C470        C  0.00000789  0.94206146  0.99960760     0.90800
O471        O  0.99773089  0.95285825  0.22531210    -0.73000
O472        O  0.99997282  0.54384162  0.22594339    -0.73900
O473        O  0.04362581  0.49663453  0.22580741    -0.62600
O474        O  0.45302354  0.99991661  0.22497320    -0.71000
O475        O  0.45222225  0.99760954  0.27505192    -0.70500
O476        O  0.04330675  0.49808005  0.27593492    -0.61800
O477        O  0.49739472  0.54331876  0.27597626    -0.74300
O478        O  0.49791009  0.95253490  0.27545646    -0.73100
Cu479      Cu  0.99850651  0.49834332  0.22376741     1.04600
Cu480      Cu  0.49765502  0.99788144  0.27736187     1.04300
C481        C  0.99807414  0.93838414  0.25035002     0.93200
C482        C  0.49932967  0.55793506  0.25111904     0.92400
C483        C  0.05775070  0.99706179  0.25091937     0.84500
C484        C  0.43830112  0.49886152  0.24978285     0.90800
O485        O  0.02710977  0.70602428  0.00301544    -0.73000
O486        O  0.02705428  0.79691438  0.00215227    -0.73900
O487        O  0.02703400  0.75147050  0.04749987    -0.62600
O488        O  0.02714357  0.75094699  0.45709755    -0.71000
O489        O  0.47694967  0.75188632  0.45655800    -0.70500
O490        O  0.47691519  0.75185588  0.04708004    -0.61800
O491        O  0.47678194  0.79737464  0.50114453    -0.74300
O492        O  0.47681327  0.70665948  0.50172540    -0.73100
Cu493      Cu  0.02884347  0.75138846  0.00241472     1.04600
Cu494      Cu  0.47510987  0.75199525  0.50168650     1.04300
C495        C  0.50188710  0.69213326  0.00246450     0.93200
C496        C  0.50193152  0.81141278  0.50139752     0.92400
C497        C  0.50188090  0.75130532  0.06170046     0.84500
C498        C  0.50217778  0.75109410  0.44249631     0.90800
O499        O  0.02706561  0.79392637  0.25195848    -0.73000
O500        O  0.02864325  0.70279294  0.25245677    -0.73900
O501        O  0.02841043  0.74828161  0.20728216    -0.62600
O502        O  0.02733969  0.74851444  0.29777952    -0.71000
O503        O  0.47714580  0.74904953  0.29743494    -0.70500
O504        O  0.47830732  0.74745414  0.20704849    -0.61800
O505        O  0.47839263  0.70279928  0.25351293    -0.74300
O506        O  0.47680429  0.79341668  0.25180817    -0.73100
Cu507      Cu  0.02964605  0.74838585  0.25242414     1.04600
Cu508      Cu  0.47594111  0.74812479  0.25237112     1.04300
C509        C  0.50165615  0.80796091  0.25187606     0.93200
C510        C  0.50361713  0.68849625  0.25324055     0.92400
C511        C  0.50345832  0.74784585  0.19275271     0.84500
C512        C  0.50211557  0.74914608  0.31193699     0.90800
O513        O  0.20362594  0.52605489  0.49735793    -0.73000
O514        O  0.29429308  0.52719610  0.49816651    -0.73900
O515        O  0.24951294  0.52543566  0.45264907    -0.62600
O516        O  0.24847740  0.52734768  0.04327378    -0.71000
O517        O  0.25008784  0.97718190  0.04428150    -0.70500
O518        O  0.24981062  0.97528022  0.45400412    -0.61800
O519        O  0.29531858  0.97695273  0.99957039    -0.74300
O520        O  0.20436680  0.97581965  0.99992611    -0.73100
Cu521      Cu  0.24891714  0.52826311  0.49781849     1.04600
Cu522      Cu  0.24991083  0.97455946  0.99940953     1.04300
C523        C  0.18972675  0.00085955  0.49891808     0.93200
C524        C  0.30911085  0.00227259  0.99904655     0.92400
C525        C  0.24995643  0.00000918  0.43893683     0.84500
C526        C  0.24929782  0.00247649  0.05812358     0.90800
O527        O  0.29332801  0.52332409  0.24748238    -0.73000
O528        O  0.20246297  0.52340424  0.24982322    -0.73900
O529        O  0.24901227  0.52238758  0.29381370    -0.62600
O530        O  0.24703640  0.52442178  0.20349412    -0.71000
O531        O  0.24929141  0.97430160  0.20276814    -0.70500
O532        O  0.24730376  0.97228629  0.29336808    -0.61800
O533        O  0.20276170  0.97325980  0.24693429    -0.74300
O534        O  0.29354442  0.97310684  0.24918365    -0.73100
Cu535      Cu  0.24790195  0.52512726  0.24867269     1.04600
Cu536      Cu  0.24819112  0.97147531  0.24799340     1.04300
C537        C  0.30774027  0.99817753  0.24844825     0.93200
C538        C  0.18826234  0.99833165  0.24862150     0.92400
C539        C  0.24838385  0.99715403  0.30799042     0.84500
C540        C  0.24852606  0.99964361  0.18877184     0.90800
C541        C  0.25045272  0.99913614  0.40544390    -0.05500
C542        C  0.24268699  0.97236525  0.39030697    -0.32900
C543        C  0.24205758  0.97116961  0.35869564     0.36300
C544        C  0.24924315  0.99710033  0.34149960    -0.05800
C545        C  0.25755814  0.52366481  0.35668712    -0.32800
C546        C  0.25853084  0.52475309  0.38821371     0.36200
H547        H  0.23664743  0.95229438  0.40299193     0.16600
O548        O  0.23425521  0.94454589  0.34498500    -0.60300
H549        H  0.26372779  0.54374943  0.34408719     0.16600
O550        O  0.26773027  0.55096713  0.40183303    -0.60400
H551        H  0.28992742  0.54859744  0.40445124     0.43600
H552        H  0.21186730  0.94522734  0.34340187     0.43600
C553        C  0.24955068  0.00253989  0.09153544    -0.05500
C554        C  0.25919781  0.97637488  0.10699526    -0.32900
C555        C  0.25952669  0.97528895  0.13851158     0.36300
C556        C  0.24938120  0.00043042  0.15535674    -0.05800
C557        C  0.24019764  0.52679890  0.13993542    -0.32800
C558        C  0.24023870  0.52801895  0.10835173     0.36200
H559        H  0.26697188  0.95667206  0.09462301     0.16600
O560        O  0.27022657  0.94961628  0.15251342    -0.60300
H561        H  0.23255991  0.54651232  0.15236563     0.16600
O562        O  0.23088119  0.55415557  0.09426943    -0.60400
H563        H  0.20873658  0.55190867  0.09152958     0.43600
H564        H  0.29218276  0.95310913  0.15543433     0.43600
C565        C  0.50236193  0.75040003  0.40911473    -0.05500
C566        C  0.47729715  0.76173990  0.39305656    -0.32900
C567        C  0.47694877  0.76166250  0.36147316     0.36300
C568        C  0.50187463  0.74985021  0.34531370    -0.05800
C569        C  0.02688487  0.73843221  0.36137763    -0.32800
C570        C  0.02716007  0.73836845  0.39295207     0.36200
H571        H  0.45801397  0.77113893  0.40500215     0.16600
O572        O  0.45226032  0.77354125  0.34669856    -0.60300
H573        H  0.04612757  0.72895559  0.34943187     0.16600
O574        O  0.05157682  0.72593520  0.40771664    -0.60400
H575        H  0.04606385  0.70452541  0.41144471     0.43600
H576        H  0.45644522  0.79547410  0.34465597     0.43600
C577        C  0.50192584  0.75017984  0.09522789    -0.05500
C578        C  0.02960405  0.74775570  0.11077270    -0.32900
C579        C  0.03057946  0.74681318  0.14234651     0.36300
C580        C  0.50347674  0.74813084  0.15921642    -0.05800
C581        C  0.47581306  0.75020905  0.14365573    -0.32800
C582        C  0.47484163  0.75112760  0.11210085     0.36200
H583        H  0.05076683  0.74660726  0.09846274     0.16600
O584        O  0.05819413  0.74413453  0.15631445    -0.60300
H585        H  0.45464500  0.75130368  0.15595427     0.16600
O586        O  0.44721052  0.75351215  0.09814719    -0.60400
H587        H  0.43995906  0.73241315  0.09620406     0.43600
H588        H  0.06590517  0.76510346  0.15782122     0.43600
C589        C  0.09106978  0.99673672  0.25082277    -0.05500
C590        C  0.10688809  0.51738609  0.26877412    -0.32900
C591        C  0.13854012  0.51861633  0.26771556     0.36300
C592        C  0.15485196  0.99821376  0.24934989    -0.05800
C593        C  0.13898735  0.97711778  0.23190133    -0.32800
C594        C  0.10730503  0.97664516  0.23213127     0.36200
H595        H  0.09463125  0.53304492  0.28315735     0.16600
O596        O  0.15335960  0.53899907  0.28562002    -0.60300
H597        H  0.15117777  0.96123829  0.21770520     0.16600
O598        O  0.09242434  0.95569902  0.21492285    -0.60400
H599        H  0.09110901  0.96477528  0.19444685     0.43600
H600        H  0.15287892  0.55831529  0.27414783     0.43600
C601        C  0.34108913  0.99810649  0.24878404    -0.05500
C602        C  0.35690833  0.51759101  0.22945676    -0.32900
C603        C  0.38859899  0.51778887  0.22930860     0.36300
C604        C  0.40490610  0.99887570  0.24925343    -0.05800
C605        C  0.38905504  0.97972835  0.26892343    -0.32800
C606        C  0.35738057  0.97886202  0.26841485     0.36200
H607        H  0.34464458  0.53244830  0.21416720     0.16600
O608        O  0.40338970  0.53687349  0.20989648    -0.60300
H609        H  0.40128513  0.96504569  0.28440438     0.16600
O610        O  0.34251251  0.96008783  0.28807597    -0.60400
H611        H  0.34224483  0.94006203  0.27801496     0.43600
H612        H  0.40701908  0.55556101  0.22167284     0.43600
C613        C  0.99895889  0.90502696  0.25041224    -0.05500
C614        C  0.48118324  0.88895437  0.27114883    -0.32900
C615        C  0.48183764  0.85727905  0.27175143     0.36300
C616        C  0.00090125  0.84127204  0.25182931    -0.05800
C617        C  0.01923834  0.85732335  0.23162222    -0.32800
C618        C  0.01804374  0.88899550  0.23050787     0.36200
H619        H  0.46654598  0.90099763  0.28673092     0.16600
O620        O  0.46416249  0.84218097  0.29223002    -0.60300
H621        H  0.03416928  0.84525063  0.21634234     0.16600
O622        O  0.03662685  0.90412571  0.21088562    -0.60400
H623        H  0.02577592  0.90413917  0.19127760     0.43600
H624        H  0.47736994  0.83880489  0.31005804     0.43600
C625        C  0.50101475  0.59136467  0.25167074    -0.05500
C626        C  0.48535438  0.60754740  0.27409091    -0.32900
C627        C  0.48613102  0.63922120  0.27481520     0.36300
C628        C  0.50359644  0.65515754  0.25359406    -0.05800
C629        C  0.02016277  0.63904564  0.23185637    -0.32800
C630        C  0.01855124  0.60739624  0.23043824     0.36200
H631        H  0.47198504  0.59563765  0.29077255     0.16600
O632        O  0.47053957  0.65440533  0.29694525    -0.60300
H633        H  0.03374567  0.65108210  0.21543541     0.16600
O634        O  0.03501242  0.59230207  0.20888464    -0.60400
H635        H  0.02244994  0.59326260  0.19033306     0.43600
H636        H  0.44945484  0.65605481  0.28939343     0.43600
C637        C  0.09262688  0.00204579  0.50005479    -0.05500
C638        C  0.10879440  0.98648521  0.02269264    -0.32900
C639        C  0.14049868  0.98560522  0.02236605     0.36300
C640        C  0.15644887  0.00089176  0.49951628    -0.05800
C641        C  0.14039370  0.51715613  0.47744519    -0.32800
C642        C  0.10872250  0.51742998  0.47729347     0.36200
H643        H  0.09681835  0.97461749  0.04043549     0.16600
O644        O  0.15568087  0.97016056  0.04470198    -0.60300
H645        H  0.15247881  0.52933361  0.45998355     0.16600
O646        O  0.09374489  0.53374320  0.45544860    -0.60400
H647        H  0.09325590  0.52032182  0.43753956     0.43600
H648        H  0.16056448  0.98560907  0.06013040     0.43600
C649        C  0.34245177  0.00267926  0.99965138    -0.05500
C650        C  0.35816670  0.98306605  0.01921465    -0.32900
C651        C  0.38984372  0.98296322  0.02015490     0.36300
C652        C  0.40625505  0.50215936  0.00083545    -0.05800
C653        C  0.39053206  0.52154128  0.48104857    -0.32800
C654        C  0.35884391  0.52232701  0.48078555     0.36200
H655        H  0.34582102  0.96797393  0.03401014     0.16600
O656        O  0.40453310  0.96360702  0.03961298    -0.60300
H657        H  0.40286899  0.53642251  0.46603347     0.16600
O658        O  0.34412075  0.54141663  0.46109246    -0.60400
H659        H  0.34311213  0.56121551  0.47156370     0.43600
H660        H  0.40837805  0.94495694  0.02776494     0.43600
C661        C  0.00078761  0.90854994  0.49933977    -0.05500
C662        C  0.01475908  0.89291278  0.02333741    -0.32900
C663        C  0.01581249  0.86124325  0.02386496     0.36300
C664        C  0.00191533  0.84468816  0.50072323    -0.05800
C665        C  0.48779419  0.86011491  0.47679321    -0.32800
C666        C  0.48752985  0.89182181  0.47572713     0.36200
H667        H  0.02519817  0.90527880  0.04163652     0.16600
O668        O  0.02937667  0.84664068  0.04772346    -0.60300
H669        H  0.47722644  0.84751028  0.45872306     0.16600
O670        O  0.47397938  0.90614516  0.45169023    -0.60400
H671        H  0.45275937  0.90980206  0.45807206     0.43600
H672        H  0.05108281  0.84506675  0.04219953     0.43600
C673        C  0.50159582  0.65899106  0.00230672    -0.05500
C674        C  0.49164841  0.64390975  0.47646744    -0.32900
C675        C  0.49084406  0.61229049  0.47571100     0.36300
C676        C  0.49963434  0.59524321  0.00137613    -0.05800
C677        C  0.00935484  0.61062775  0.02737014    -0.32800
C678        C  0.01073468  0.64228043  0.02778690     0.36200
H679        H  0.48467757  0.65672774  0.45671044     0.16600
O680        O  0.48135794  0.59839362  0.44975700    -0.60300
H681        H  0.01628402  0.59811208  0.04731200     0.16600
O682        O  0.02005545  0.65672822  0.05350141    -0.60400
H683        H  0.04226737  0.65889392  0.05124720     0.43600
H684        H  0.45913895  0.59633510  0.45202001     0.43600
O685        O  0.45411347  0.50096696  0.52575729    -0.73000
O686        O  0.04504743  0.50141200  0.52551134    -0.73900
O687        O  0.99924515  0.54695613  0.52610980    -0.62600
O688        O  0.50036465  0.95599570  0.52485749    -0.71000
O689        O  0.49920124  0.95690068  0.97479395    -0.70500
O690        O  0.99908172  0.54760217  0.97607051    -0.61800
O691        O  0.04457831  0.00235567  0.97540932    -0.74300
O692        O  0.45378637  0.00292371  0.97564640    -0.73100
Cu693      Cu  0.99964675  0.50132623  0.52732592     1.04600
Cu694      Cu  0.49915121  0.00244016  0.97375546     1.04300
C695        C  0.43962809  0.50195732  0.50078223     0.93200
C696        C  0.05917513  0.00198200  0.50033645     0.92400
C697        C  0.49919893  0.56169461  0.50119465     0.84500
C698        C  0.00000939  0.94206057  0.49960835     0.90800
O699        O  0.99772955  0.95285856  0.72531279    -0.73000
O700        O  0.99997346  0.54384208  0.72594282    -0.73900
O701        O  0.04362513  0.49663387  0.72580808    -0.62600
O702        O  0.45302343  0.99991785  0.72497213    -0.71000
O703        O  0.45222118  0.99761085  0.77505086    -0.70500
O704        O  0.04330551  0.49808001  0.77593557    -0.61800
O705        O  0.49739500  0.54331984  0.77597576    -0.74300
O706        O  0.49790804  0.95253553  0.77545715    -0.73100
Cu707      Cu  0.99850580  0.49834379  0.72376765     1.04600
Cu708      Cu  0.49765395  0.99788209  0.77736178     1.04300
C709        C  0.99807206  0.93838466  0.75035086     0.93200
C710        C  0.49933088  0.55793582  0.75111839     0.92400
C711        C  0.05775004  0.99706151  0.75091992     0.84500
C712        C  0.43830020  0.49886336  0.74978299     0.90800
O713        O  0.02710977  0.70602350  0.50301485    -0.73000
O714        O  0.02705661  0.79691331  0.50215166    -0.73900
O715        O  0.02703643  0.75146975  0.54749940    -0.62600
O716        O  0.02714365  0.75094835  0.95709816    -0.71000
O717        O  0.47694991  0.75188678  0.95655697    -0.70500
O718        O  0.47691755  0.75185648  0.54708093    -0.61800
O719        O  0.47677968  0.79737481  0.00114370    -0.74300
O720        O  0.47681337  0.70665929  0.00172362    -0.73100
Cu721      Cu  0.02884466  0.75138741  0.50241411     1.04600
Cu722      Cu  0.47510878  0.75199517  0.00168535     1.04300
C723        C  0.50188680  0.69213308  0.50246518     0.93200
C724        C  0.50192899  0.81141347  0.00139734     0.92400
C725        C  0.50188363  0.75130556  0.56170066     0.84500
C726        C  0.50217845  0.75109524  0.94249602     0.90800
O727        O  0.02706666  0.79392783  0.75195950    -0.73000
O728        O  0.02864866  0.70279417  0.75245607    -0.73900
O729        O  0.02841455  0.74828371  0.70728220    -0.62600
O730        O  0.02734237  0.74851529  0.79777949    -0.71000
O731        O  0.47714868  0.74904779  0.79743428    -0.70500
O732        O  0.47831149  0.74745481  0.70704826    -0.61800
O733        O  0.47839805  0.70279900  0.75351131    -0.74300
O734        O  0.47680552  0.79341607  0.75180904    -0.73100
Cu735      Cu  0.02964941  0.74838733  0.75242423     1.04600
Cu736      Cu  0.47594460  0.74812420  0.75237066     1.04300
C737        C  0.50165670  0.80796139  0.75187734     0.93200
C738        C  0.50362295  0.68849671  0.75323922     0.92400
C739        C  0.50346253  0.74784744  0.69275264     0.84500
C740        C  0.50211825  0.74914568  0.81193661     0.90800
O741        O  0.20362572  0.52605979  0.99735831    -0.73000
O742        O  0.29429307  0.52720059  0.99816648    -0.73900
O743        O  0.24951280  0.52543991  0.95264908    -0.62600
O744        O  0.24847698  0.52734262  0.54327352    -0.71000
O745        O  0.25009016  0.97718222  0.54428160    -0.70500
O746        O  0.24980975  0.97528223  0.95400393    -0.61800
O747        O  0.29532014  0.97695292  0.49956977    -0.74300
O748        O  0.20436835  0.97581802  0.49992681    -0.73100
Cu749      Cu  0.24891711  0.52826784  0.99781863     1.04600
Cu750      Cu  0.24991245  0.97455869  0.49940968     1.04300
C751        C  0.18972564  0.00086141  0.99891782     0.93200
C752        C  0.30911207  0.00227297  0.49904560     0.92400
C753        C  0.24995616  0.00001144  0.93893698     0.84500
C754        C  0.24929998  0.00247709  0.55812319     0.90800
O755        O  0.29332652  0.52332381  0.74748164    -0.73000
O756        O  0.20246158  0.52340278  0.74982383    -0.73900
O757        O  0.24901168  0.52238793  0.79381360    -0.62600
O758        O  0.24703410  0.52441948  0.70349379    -0.71000
O759        O  0.24929036  0.97430229  0.70276751    -0.70500
O760        O  0.24730375  0.97228830  0.79336788    -0.61800
O761        O  0.20276102  0.97326166  0.74693448    -0.74300
O762        O  0.29354356  0.97310689  0.74918246    -0.73100
Cu763      Cu  0.24790048  0.52512635  0.74867248     1.04600
Cu764      Cu  0.24819036  0.97147650  0.74799302     1.04300
C765        C  0.30773985  0.99817728  0.74844647     0.93200
C766        C  0.18826182  0.99833359  0.74862135     0.92400
C767        C  0.24838449  0.99715614  0.80799004     0.84500
C768        C  0.24852571  0.99964435  0.68877122     0.90800
C769        C  0.25045309  0.99913878  0.90544394    -0.05500
C770        C  0.24269105  0.97236688  0.89030687    -0.32900
C771        C  0.24206223  0.97117107  0.85869556     0.36300
C772        C  0.24924425  0.99710270  0.84149939    -0.05800
C773        C  0.25755894  0.52366651  0.85668704    -0.32800
C774        C  0.25853147  0.52475563  0.88821359     0.36200
H775        H  0.23665407  0.95229514  0.90299168     0.16600
O776        O  0.23426415  0.94454600  0.84498508    -0.60300
H777        H  0.26372896  0.54375073  0.84408661     0.16600
O778        O  0.26773134  0.55096984  0.90183230    -0.60400
H779        H  0.28992843  0.54859978  0.90445068     0.43600
H780        H  0.21187613  0.94522361  0.84340245     0.43600
C781        C  0.24955346  0.00254109  0.59153499    -0.05500
C782        C  0.25920356  0.97637727  0.60699503    -0.32900
C783        C  0.25953177  0.97529144  0.63851138     0.36300
C784        C  0.24938217  0.00043146  0.65535621    -0.05800
C785        C  0.24019813  0.52679599  0.63993492    -0.32800
C786        C  0.24023964  0.52801552  0.60835114     0.36200
H787        H  0.26698040  0.95667544  0.59462294     0.16600
O788        O  0.27023529  0.94962048  0.65251362    -0.60300
H789        H  0.23256350  0.54651085  0.65236471     0.16600
O790        O  0.23088642  0.55415342  0.59426840    -0.60400
H791        H  0.20874137  0.55191029  0.59152884     0.43600
H792        H  0.29219075  0.95311698  0.65543544     0.43600
C793        C  0.50236358  0.75040156  0.90911436    -0.05500
C794        C  0.47729656  0.76173580  0.89305572    -0.32900
C795        C  0.47694847  0.76165781  0.86147236     0.36300
C796        C  0.50187689  0.74985039  0.84531329    -0.05800
C797        C  0.02688953  0.73843873  0.86137757    -0.32800
C798        C  0.02716472  0.73837582  0.89295199     0.36200
H799        H  0.45801116  0.77113072  0.90500089     0.16600
O800        O  0.45225766  0.77353123  0.84669749    -0.60300
H801        H  0.04613456  0.72896649  0.84943212     0.16600
O802        O  0.05158472  0.72594921  0.90771666    -0.60400
H803        H  0.04607771  0.70453781  0.91144443     0.43600
H804        H  0.45643995  0.79546426  0.84465089     0.43600
C805        C  0.50192919  0.75018082  0.59522804    -0.05500
C806        C  0.02960747  0.74775460  0.61077248    -0.32900
C807        C  0.03058328  0.74681243  0.64234629     0.36300
C808        C  0.50348088  0.74813266  0.65921644    -0.05800
C809        C  0.47581720  0.75021331  0.64365614    -0.32800
C810        C  0.47484536  0.75113151  0.61210137     0.36200
H811        H  0.05076997  0.74660399  0.59846219     0.16600
O812        O  0.05819787  0.74413117  0.65631398    -0.60300
H813        H  0.45464936  0.75131008  0.65595493     0.16600
O814        O  0.44721418  0.75351849  0.59814818    -0.60400
H815        H  0.43996051  0.73242020  0.59620588     0.43600
H816        H  0.06591144  0.76509922  0.65781975     0.43600
C817        C  0.09106915  0.99673689  0.75082343    -0.05500
C818        C  0.10688713  0.51738467  0.76877566    -0.32900
C819        C  0.13853917  0.51861451  0.76771745     0.36300
C820        C  0.15485136  0.99821568  0.74934959    -0.05800
C821        C  0.13898699  0.97711899  0.73190170    -0.32800
C822        C  0.10730469  0.97664541  0.73213211     0.36200
H823        H  0.09463033  0.53304381  0.78315859     0.16600
O824        O  0.15335870  0.53899718  0.78562196    -0.60300
H825        H  0.15117765  0.96123945  0.71770576     0.16600
O826        O  0.09242437  0.95569855  0.71492425    -0.60400
H827        H  0.09110864  0.96477439  0.69444805     0.43600
H828        H  0.15287863  0.55831328  0.77414953     0.43600
C829        C  0.34108873  0.99810564  0.74878136    -0.05500
C830        C  0.35690714  0.51759486  0.72945987    -0.32900
C831        C  0.38859783  0.51779331  0.72931183     0.36300
C832        C  0.40490561  0.99887596  0.74925127    -0.05800
C833        C  0.38905479  0.97972684  0.76891966    -0.32800
C834        C  0.35738036  0.97885978  0.76841066     0.36200
H835        H  0.34464321  0.53245430  0.71417255     0.16600
O836        O  0.40338830  0.53688120  0.70990275    -0.60300
H837        H  0.40128505  0.96504337  0.78439976     0.16600
O838        O  0.34251258  0.96008359  0.78807006    -0.60400
H839        H  0.34224530  0.94005869  0.77800725     0.43600
H840        H  0.40701781  0.55556674  0.72168217     0.43600
C841        C  0.99895678  0.90502751  0.75041329    -0.05500
C842        C  0.48117715  0.88895464  0.77114621    -0.32900
C843        C  0.48183208  0.85727924  0.77174889     0.36300
C844        C  0.00090042  0.84127260  0.75183085    -0.05800
C845        C  0.01924121  0.85732442  0.73162758    -0.32800
C846        C  0.01804606  0.88899648  0.73051292     0.36200
H847        H  0.46653653  0.90099771  0.78672533     0.16600
O848        O  0.46415294  0.84218087  0.79222381    -0.60300
H849        H  0.03417566  0.84525212  0.71635075     0.16600
O850        O  0.03663285  0.90412703  0.71089445    -0.60400
H851        H  0.02578542  0.90414117  0.69128449     0.43600
H852        H  0.47735714  0.83880392  0.81005410     0.43600
C853        C  0.50101793  0.59136537  0.75166986    -0.05500
C854        C  0.48536022  0.60754871  0.77409139    -0.32900
C855        C  0.48613843  0.63922238  0.77481577     0.36300
C856        C  0.50360271  0.65515808  0.75359324    -0.05800
C857        C  0.02016667  0.63904558  0.73185414    -0.32800
C858        C  0.01855358  0.60739621  0.73043596     0.36200
H859        H  0.47199156  0.59563962  0.79077402     0.16600
O860        O  0.47054924  0.65440713  0.79694699    -0.60300
H861        H  0.03374851  0.65108159  0.71543194     0.16600
O862        O  0.03501196  0.59230145  0.70888065    -0.60400
H863        H  0.02244754  0.59326242  0.69033037     0.43600
H864        H  0.44946405  0.65605766  0.78939669     0.43600
C865        C  0.09262597  0.00204719  0.00005314    -0.05500
C866        C  0.10879519  0.98647422  0.52268777    -0.32900
C867        C  0.14049952  0.98559379  0.52236040     0.36300
C868        C  0.15644797  0.00089389  0.99951580    -0.05800
C869        C  0.14039344  0.51715076  0.97743925    -0.32800
C870        C  0.10872225  0.51742321  0.97728694     0.36200
H871        H  0.09681900  0.97459948  0.54042579     0.16600
O872        O  0.15568164  0.97013976  0.54468996    -0.60300
H873        H  0.15247841  0.52932155  0.95997280     0.16600
O874        O  0.09374456  0.53372697  0.95543516    -0.60400
H875        H  0.09325729  0.52029860  0.93753128     0.43600
H876        H  0.16056581  0.98558191  0.56012457     0.43600
C877        C  0.34245301  0.00267996  0.49965085    -0.05500
C878        C  0.35816776  0.98306463  0.51921222    -0.32900
C879        C  0.38984473  0.98296143  0.52015255     0.36300
C880        C  0.40625533  0.50215800  0.50083598    -0.05800
C881        C  0.39053228  0.52154366  0.98104857    -0.32800
C882        C  0.35884412  0.52233055  0.98078589     0.36200
H883        H  0.34582198  0.96797105  0.53400611     0.16600
O884        O  0.40453388  0.96360323  0.53960883    -0.60300
H885        H  0.40286959  0.53642472  0.96603365     0.16600
O886        O  0.34412140  0.54142091  0.96109316    -0.60400
H887        H  0.34311382  0.56121978  0.97156447     0.43600
H888        H  0.40837879  0.94495428  0.52775899     0.43600
C889        C  0.00078560  0.90855092  0.99933907    -0.05500
C890        C  0.01475362  0.89291174  0.52334247    -0.32900
C891        C  0.01580748  0.86124224  0.52386997     0.36300
C892        C  0.00191231  0.84468905  0.00072301    -0.05800
C893        C  0.48778353  0.86011597  0.97679750    -0.32800
C894        C  0.48751960  0.89182291  0.97573107     0.36200
H895        H  0.02518650  0.90527766  0.54164521     0.16600
O896        O  0.02936425  0.84663956  0.54773257    -0.60300
H897        H  0.47720957  0.84751143  0.95873095     0.16600
O898        O  0.47396134  0.90614649  0.95169864    -0.60400
H899        H  0.45274393  0.90980514  0.95808809     0.43600
H900        H  0.05107170  0.84506362  0.54221432     0.43600
C901        C  0.50159505  0.65899110  0.50230746    -0.05500
C902        C  0.49163607  0.64390976  0.97647162    -0.32900
C903        C  0.49083154  0.61229050  0.97571547     0.36300
C904        C  0.49963447  0.59524323  0.50137601    -0.05800
C905        C  0.00934194  0.61062815  0.52737475    -0.32800
C906        C  0.01072096  0.64228082  0.52779220     0.36200
H907        H  0.48465530  0.65672778  0.95671810     0.16600
O908        O  0.48133252  0.59839351  0.94976625    -0.60300
H909        H  0.01626135  0.59811287  0.54732016     0.16600
O910        O  0.02002872  0.65672897  0.55351125    -0.60400
H911        H  0.04224138  0.65889713  0.55126690     0.43600
H912        H  0.45911508  0.59633231  0.95204155     0.43600
O913        O  0.95411790  0.00097456  0.02574597    -0.73000
O914        O  0.54505296  0.00140624  0.02549871    -0.73900
O915        O  0.49926002  0.04695621  0.02610563    -0.62600
O916        O  0.00036486  0.45599541  0.02486824    -0.71000
O917        O  0.99920982  0.45690112  0.47480646    -0.70500
O918        O  0.49909856  0.04760520  0.47606704    -0.61800
O919        O  0.54457501  0.50236261  0.47542172    -0.74300
O920        O  0.95378381  0.50291065  0.47565451    -0.73100
Cu921      Cu  0.49965271  0.00132682  0.02731609     1.04600
Cu922      Cu  0.99914868  0.50243749  0.47376505     1.04300
C923        C  0.93963165  0.00196831  0.00077137     0.93200
C924        C  0.55916954  0.50199066  0.00034736     0.92400
C925        C  0.99921832  0.06169779  0.00119003     0.84500
C926        C  0.50001198  0.44206079  0.99961858     0.90800
O927        O  0.49774441  0.45285438  0.22532381    -0.73000
O928        O  0.49997174  0.04383983  0.22593129    -0.73900
O929        O  0.54361929  0.99662858  0.22579846    -0.62600
O930        O  0.95303197  0.49990743  0.22498049    -0.71000
O931        O  0.95222697  0.49760168  0.27505916    -0.70500
O932        O  0.54330009  0.99807635  0.27592568    -0.61800
O933        O  0.99739385  0.04332198  0.27596494    -0.74300
O934        O  0.99792048  0.45253480  0.27546802    -0.73100
Cu935      Cu  0.49849893  0.99834415  0.22375763     1.04600
Cu936      Cu  0.99766069  0.49787994  0.27737174     1.04300
C937        C  0.49808529  0.43838185  0.25036299     0.93200
C938        C  0.99932857  0.05793610  0.25110618     0.92400
C939        C  0.55775628  0.49706637  0.25092914     0.84500
C940        C  0.93829503  0.99887379  0.24977824     0.90800
O941        O  0.52713249  0.20603140  0.00302681    -0.73000
O942        O  0.52706115  0.29691882  0.00213097    -0.73900
O943        O  0.52705125  0.25149460  0.04749448    -0.62600
O944        O  0.52714788  0.25093562  0.45709078    -0.71000
O945        O  0.97695525  0.25186145  0.45655904    -0.70500
O946        O  0.97693069  0.25187855  0.04707627    -0.61800
O947        O  0.97678533  0.29737416  0.50112532    -0.74300
O948        O  0.97683330  0.20665785  0.50174606    -0.73100
Cu949      Cu  0.52885671  0.25139487  0.00240846     1.04600
Cu950      Cu  0.97512011  0.25199380  0.50168580     1.04300
C951        C  0.00191030  0.19213689  0.00248468     0.93200
C952        C  0.00193355  0.31141486  0.50137898     0.92400
C953        C  0.00189639  0.25133462  0.06169575     0.84500
C954        C  0.00218076  0.25106873  0.44249310     0.90800
O955        O  0.52706211  0.29392077  0.25197222    -0.73000
O956        O  0.52863066  0.20278909  0.25243117    -0.73900
O957        O  0.52840894  0.24829639  0.20727669    -0.62600
O958        O  0.52732396  0.24848750  0.29777330    -0.71000
O959        O  0.97713286  0.24902010  0.29742130    -0.70500
O960        O  0.97830459  0.24748260  0.20703603    -0.61800
O961        O  0.97837900  0.20280115  0.25347284    -0.74300
O962        O  0.97680300  0.29341899  0.25182059    -0.73100
Cu963      Cu  0.52963768  0.24838058  0.25241841     1.04600
Cu964      Cu  0.97593342  0.24812635  0.25235738     1.04300
C965        C  0.00165701  0.30795974  0.25189296     0.93200
C966        C  0.00360223  0.18849596  0.25320375     0.92400
C967        C  0.00345760  0.24787268  0.19274408     0.84500
C968        C  0.00209994  0.24910842  0.31192810     0.90800
O969        O  0.70362818  0.02604094  0.49734793    -0.73000
O970        O  0.79429429  0.02719430  0.49816003    -0.73900
O971        O  0.74951577  0.02542332  0.45264270    -0.62600
O972        O  0.74847445  0.02733944  0.04326679    -0.71000
O973        O  0.75008380  0.47718986  0.04428153    -0.70500
O974        O  0.74980375  0.47529057  0.45400523    -0.61800
O975        O  0.79531243  0.47695903  0.99957049    -0.74300
O976        O  0.70436114  0.47583463  0.99992914    -0.73100
Cu977      Cu  0.74891834  0.02825513  0.49781084     1.04600
Cu978      Cu  0.74990481  0.47457027  0.99941059     1.04300
C979        C  0.68972160  0.50087247  0.49892311     0.93200
C980        C  0.80910740  0.50227737  0.99904797     0.92400
C981        C  0.74995242  0.50001980  0.43893859     0.84500
C982        C  0.74929862  0.50248342  0.05812535     0.90800
O983        O  0.79331639  0.02333931  0.24748047    -0.73000
O984        O  0.70245192  0.02339914  0.24982350    -0.73900
O985        O  0.74900117  0.02238794  0.29381245    -0.62600
O986        O  0.74702311  0.02442852  0.20349056    -0.71000
O987        O  0.74929331  0.47429482  0.20276902    -0.70500
O988        O  0.74730667  0.47228546  0.29337035    -0.61800
O989        O  0.70276377  0.47326464  0.24693642    -0.74300
O990        O  0.79354650  0.47309152  0.24918485    -0.73100
Cu991      Cu  0.74788982  0.02513174  0.24867103     1.04600
Cu992      Cu  0.74819284  0.47147072  0.24799523     1.04300
C993        C  0.80774694  0.49815943  0.24844832     0.93200
C994        C  0.68826813  0.49833890  0.24862042     0.92400
C995        C  0.74839114  0.49715401  0.30799121     0.84500
C996        C  0.74853378  0.49963719  0.18877290     0.90800
C997        C  0.75045202  0.49914593  0.40544542    -0.05500
C998        C  0.74270449  0.47236885  0.39030969    -0.32900
C999        C  0.74208056  0.47116935  0.35869855     0.36300
C1000       C  0.74925078  0.49710315  0.34150071    -0.05800
C1001       C  0.75757406  0.02365100  0.35668462    -0.32800
C1002       C  0.75855091  0.02473517  0.38821097     0.36200
H1003       H  0.73667642  0.45229492  0.40299535     0.16600
O1004       O  0.73430109  0.44453775  0.34498992    -0.60300
H1005       H  0.76376120  0.04373079  0.34408573     0.16600
O1006       O  0.76777503  0.05093943  0.40183213    -0.60400
H1007       H  0.78997016  0.04854889  0.40444985     0.43600
H1008       H  0.71191255  0.44519829  0.34340971     0.43600
C1009       C  0.74955536  0.50254350  0.09153713    -0.05500
C1010       C  0.75918806  0.47637090  0.10699345    -0.32900
C1011       C  0.75951865  0.47528099  0.13850959     0.36300
C1012       C  0.74938846  0.50042613  0.15535799    -0.05800
C1013       C  0.74017555  0.02679648  0.13992777    -0.32800
C1014       C  0.74021674  0.02801215  0.10834353     0.36200
H1015       H  0.76694930  0.45666475  0.09461863     0.16600
O1016       O  0.77020506  0.44960081  0.15250783    -0.60300
H1017       H  0.73252552  0.04650675  0.15235556     0.16600
O1018       O  0.73084132  0.05414025  0.09425713    -0.60400
H1019       H  0.70869838  0.05187759  0.09151758     0.43600
H1020       H  0.79216351  0.45308091  0.15542751     0.43600
C1021       C  0.00235680  0.25035722  0.40911016    -0.05500
C1022       C  0.97725032  0.26160869  0.39305519    -0.32900
C1023       C  0.97689259  0.26152289  0.36147240     0.36300
C1024       C  0.00185477  0.24979496  0.34530693    -0.05800
C1025       C  0.52690177  0.23845412  0.36136722    -0.32800
C1026       C  0.52718581  0.23839614  0.39294178     0.36200
H1027       H  0.95793883  0.27094652  0.40500251     0.16600
O1028       O  0.95215685  0.27331162  0.34670586    -0.60300
H1029       H  0.54617431  0.22904213  0.34941900     0.16600
O1030       O  0.55164864  0.22604773  0.40770016    -0.60400
H1031       H  0.54620543  0.20462202  0.41144238     0.43600
H1032       H  0.95629449  0.29524774  0.34459537     0.43600
C1033       C  0.00193853  0.25021899  0.09522220    -0.05500
C1034       C  0.52961321  0.24774239  0.11076830    -0.32900
C1035       C  0.53058371  0.24679423  0.14234193     0.36300
C1036       C  0.00348004  0.24816699  0.15920898    -0.05800
C1037       C  0.97582164  0.25030673  0.14364693    -0.32800
C1038       C  0.97485446  0.25122486  0.11209254     0.36200
H1039       H  0.55077452  0.24654973  0.09845953     0.16600
O1040       O  0.55819084  0.24404701  0.15631268    -0.60300
H1041       H  0.95465481  0.25144787  0.15594391     0.16600
O1042       O  0.94722882  0.25366554  0.09813656    -0.60400
H1043       H  0.93992962  0.23258240  0.09620267     0.43600
H1044       H  0.56595428  0.26499613  0.15781994     0.43600
C1045       C  0.59107472  0.49674394  0.25083074    -0.05500
C1046       C  0.60688290  0.01735405  0.26879407    -0.32900
C1047       C  0.63853504  0.01858285  0.26773998     0.36300
C1048       C  0.65485679  0.49822525  0.24934784    -0.05800
C1049       C  0.63899142  0.47710520  0.23192853    -0.32800
C1050       C  0.60730930  0.47662970  0.23216336     0.36200
H1051       H  0.59462655  0.03299679  0.28319500     0.16600
O1052       O  0.65335531  0.03894231  0.28567036    -0.60300
H1053       H  0.65118104  0.46120716  0.21775224     0.16600
O1054       O  0.59242823  0.45565937  0.21498474    -0.60400
H1055       H  0.59110357  0.46471123  0.19449862     0.43600
H1056       H  0.65288073  0.05827147  0.27421982     0.43600
C1057       C  0.84109579  0.49808299  0.24878114    -0.05500
C1058       C  0.85690211  0.01761827  0.22946339    -0.32900
C1059       C  0.88859307  0.01781490  0.22931471     0.36300
C1060       C  0.90491264  0.49885677  0.24925475    -0.05800
C1061       C  0.88906164  0.47970934  0.26892487    -0.32800
C1062       C  0.85738712  0.47883974  0.26841330     0.36200
H1063       H  0.84463860  0.03247835  0.21417639     0.16600
O1064       O  0.90338447  0.03690443  0.20990796    -0.60300
H1065       H  0.90129182  0.46502957  0.28440849     0.16600
O1066       O  0.84251901  0.46006414  0.28807298    -0.60400
H1067       H  0.84225012  0.44003947  0.27800972     0.43600
H1068       H  0.90701418  0.05558861  0.22168953     0.43600
C1069       C  0.49896888  0.40502492  0.25042918    -0.05500
C1070       C  0.98118041  0.38895597  0.27115429    -0.32900
C1071       C  0.98183091  0.35728056  0.27175847     0.36300
C1072       C  0.50090462  0.34126999  0.25185102    -0.05800
C1073       C  0.51926222  0.35731938  0.23166073    -0.32800
C1074       C  0.51807074  0.38899134  0.23054334     0.36200
H1075       H  0.96653230  0.40100154  0.28672455     0.16600
O1076       O  0.96413434  0.34218536  0.29222105    -0.60300
H1077       H  0.53420584  0.34524511  0.21639429     0.16600
O1078       O  0.53667166  0.40411928  0.21093630    -0.60400
H1079       H  0.52583767  0.40413234  0.19131896     0.43600
H1080       H  0.97734181  0.33875417  0.31003919     0.43600
C1081       C  0.00101093  0.09136522  0.25165228    -0.05500
C1082       C  0.98534029  0.10755086  0.27406285    -0.32900
C1083       C  0.98611019  0.13922480  0.27477774     0.36300
C1084       C  0.00357891  0.15515810  0.25355710    -0.05800
C1085       C  0.52015403  0.13904260  0.23182660    -0.32800
C1086       C  0.51854885  0.10739263  0.23041732     0.36200
H1087       H  0.97196822  0.09564318  0.29074373     0.16600
O1088       O  0.97050994  0.15441245  0.29689927    -0.60300
H1089       H  0.53373916  0.15107714  0.21540605     0.16600
O1090       O  0.53501700  0.09229517  0.20887121    -0.60400
H1091       H  0.52245804  0.09324805  0.19031691     0.43600
H1092       H  0.94942840  0.15606143  0.28933846     0.43600
C1093       C  0.59262131  0.50205714  0.50006664    -0.05500
C1094       C  0.60879165  0.48648488  0.02269595    -0.32900
C1095       C  0.64049604  0.48560709  0.02236738     0.36300
C1096       C  0.65644341  0.50090666  0.49952511    -0.05800
C1097       C  0.64040037  0.01712815  0.47742474    -0.32800
C1098       C  0.60872924  0.01740475  0.47727297     0.36200
H1099       H  0.59681695  0.47460521  0.04043174     0.16600
O1100       O  0.65568004  0.47014805  0.04469229    -0.60300
H1101       H  0.65248663  0.02929704  0.45995788     0.16600
O1102       O  0.59375328  0.03371091  0.45542175    -0.60400
H1103       H  0.59326689  0.02028434  0.43751651     0.43600
H1104       H  0.66056480  0.48558653  0.06013034     0.43600
C1105       C  0.84244836  0.50268003  0.99965488    -0.05500
C1106       C  0.85815998  0.48306018  0.01921449    -0.32900
C1107       C  0.88983704  0.48295310  0.02015618     0.36300
C1108       C  0.90625850  0.00216762  0.00082605    -0.05800
C1109       C  0.89053401  0.02154626  0.48103533    -0.32800
C1110       C  0.85884554  0.02232887  0.48077325     0.36200
H1111       H  0.84581173  0.46796654  0.03400627     0.16600
O1112       O  0.90452348  0.46359234  0.03961195    -0.60300
H1113       H  0.90286905  0.03642571  0.46601694     0.16600
O1114       O  0.84411974  0.04141254  0.46107639    -0.60400
H1115       H  0.84310448  0.06121229  0.47154547     0.43600
H1116       H  0.90835927  0.44494051  0.02776381     0.43600
C1117       C  0.50078779  0.40855004  0.49934603    -0.05500
C1118       C  0.51473063  0.39290621  0.02335726    -0.32900
C1119       C  0.51578424  0.36123678  0.02387640     0.36300
C1120       C  0.50191366  0.34468874  0.50071157    -0.05800
C1121       C  0.98782330  0.36012156  0.47677041    -0.32800
C1122       C  0.98756021  0.39182837  0.47571293     0.36200
H1123       H  0.52514547  0.40526693  0.04167381     0.16600
O1124       O  0.52931812  0.34662716  0.04774771    -0.60300
H1125       H  0.97727794  0.34752145  0.45868404     0.16600
O1126       O  0.97404019  0.40615731  0.45166238    -0.60400
H1127       H  0.95281172  0.40981154  0.45801773     0.43600
H1128       H  0.55103176  0.34505719  0.04225205     0.43600
C1129       C  0.00162449  0.15899486  0.00232285    -0.05500
C1130       C  0.99168990  0.14391789  0.47647583    -0.32900
C1131       C  0.99088864  0.11229902  0.47571085     0.36300
C1132       C  0.99966490  0.09524675  0.00137605    -0.05800
C1133       C  0.50937409  0.11062542  0.02738105    -0.32800
C1134       C  0.51075466  0.14227843  0.02780538     0.36200
H1135       H  0.98472600  0.15674001  0.45671904     0.16600
O1136       O  0.98141927  0.09840834  0.44974749    -0.60300
H1137       H  0.51629099  0.09810556  0.04732452     0.16600
O1138       O  0.52006596  0.15672092  0.05352640    -0.60400
H1139       H  0.54227876  0.15888699  0.05128076     0.43600
H1140       H  0.95919676  0.09636334  0.45198883     0.43600
O1141       O  0.95411876  0.00097410  0.52574589    -0.73000
O1142       O  0.54505383  0.00140459  0.52550000    -0.73900
O1143       O  0.49926128  0.04695538  0.52610588    -0.62600
O1144       O  0.00036483  0.45599520  0.52486923    -0.71000
O1145       O  0.99920934  0.45690157  0.97480548    -0.70500
O1146       O  0.49909737  0.04760621  0.97606677    -0.61800
O1147       O  0.54457458  0.50236282  0.97542120    -0.74300
O1148       O  0.95378340  0.50291123  0.97565397    -0.73100
Cu1149     Cu  0.49965348  0.00132596  0.52731665     1.04600
Cu1150     Cu  0.99914820  0.50243791  0.97376449     1.04300
C1151       C  0.93963287  0.00196775  0.50077110     0.93200
C1152       C  0.55916978  0.50199002  0.50034797     0.92400
C1153       C  0.99921952  0.06169689  0.50119024     0.84500
C1154       C  0.50001201  0.44206043  0.49961962     0.90800
O1155       O  0.49774281  0.45285498  0.72532466    -0.73000
O1156       O  0.49997246  0.04384047  0.72593080    -0.73900
O1157       O  0.54361889  0.99662820  0.72579891    -0.62600
O1158       O  0.95303104  0.49990898  0.72498062    -0.71000
O1159       O  0.95222598  0.49760368  0.77505934    -0.70500
O1160       O  0.54329919  0.99807622  0.77592612    -0.61800
O1161       O  0.99739363  0.04332261  0.77596443    -0.74300
O1162       O  0.99791840  0.45253576  0.77546892    -0.73100
Cu1163     Cu  0.49849869  0.99834457  0.72375748     1.04600
Cu1164     Cu  0.99765963  0.49788100  0.77737199     1.04300
C1165       C  0.49808339  0.43838268  0.75036395     0.93200
C1166       C  0.99932914  0.05793667  0.75110572     0.92400
C1167       C  0.55775531  0.49706572  0.75093000     0.84500
C1168       C  0.93829441  0.99887489  0.74977688     0.90800
O1169       O  0.52713173  0.20603098  0.50302716    -0.73000
O1170       O  0.52705910  0.29691837  0.50213157    -0.73900
O1171       O  0.52704925  0.25149398  0.54749481    -0.62600
O1172       O  0.52714892  0.25093613  0.95709048    -0.71000
O1173       O  0.97695622  0.25186255  0.95655894    -0.70500
O1174       O  0.97692882  0.25187775  0.54707644    -0.61800
O1175       O  0.97678717  0.29737494  0.00112522    -0.74300
O1176       O  0.97683402  0.20665890  0.00174569    -0.73100
Cu1177     Cu  0.52885524  0.25139442  0.50240887     1.04600
Cu1178     Cu  0.97512147  0.25199474  0.00168566     1.04300
C1179       C  0.00190979  0.19213616  0.50248506     0.93200
C1180       C  0.00193552  0.31141541  0.00137853     0.92400
C1181       C  0.00189447  0.25133387  0.56169598     0.84500
C1182       C  0.00218167  0.25106961  0.94249290     0.90800
O1183       O  0.52706171  0.29392180  0.75197176    -0.73000
O1184       O  0.52863123  0.20279010  0.75243127    -0.73900
O1185       O  0.52840815  0.24829689  0.70727648    -0.62600
O1186       O  0.52732454  0.24848898  0.79777309    -0.71000
O1187       O  0.97713344  0.24902062  0.79742145    -0.70500
O1188       O  0.97830381  0.24748279  0.70703642    -0.61800
O1189       O  0.97837961  0.20280157  0.75347326    -0.74300
O1190       O  0.97680259  0.29341946  0.75182081    -0.73100
Cu1191     Cu  0.52963768  0.24838162  0.75241817     1.04600
Cu1192     Cu  0.97593343  0.24812675  0.75235769     1.04300
C1193       C  0.00165643  0.30796051  0.75189304     0.93200
C1194       C  0.00360300  0.18849661  0.75320408     0.92400
C1195       C  0.00345662  0.24787276  0.69274418     0.84500
C1196       C  0.00210062  0.24910947  0.81192803     0.90800
O1197       O  0.70362732  0.02604265  0.99734842    -0.73000
O1198       O  0.79429344  0.02719415  0.99816127    -0.73900
O1199       O  0.74951545  0.02542538  0.95264336    -0.62600
O1200       O  0.74847584  0.02733975  0.54326592    -0.71000
O1201       O  0.75008320  0.47718477  0.54428107    -0.70500
O1202       O  0.74980304  0.47529482  0.95400605    -0.61800
O1203       O  0.79531281  0.47695452  0.49957037    -0.74300
O1204       O  0.70436122  0.47582968  0.49992788    -0.73100
Cu1205     Cu  0.74891753  0.02825597  0.99781173     1.04600
Cu1206     Cu  0.74990502  0.47456552  0.49940991     1.04300
C1207       C  0.68972154  0.50087738  0.99892393     0.93200
C1208       C  0.80910757  0.50227300  0.49904795     0.92400
C1209       C  0.74995214  0.50002377  0.93893900     0.84500
C1210       C  0.74929755  0.50247827  0.55812506     0.90800
O1211       O  0.79331638  0.02333938  0.74747892    -0.73000
O1212       O  0.70245162  0.02340102  0.74982325    -0.73900
O1213       O  0.74900184  0.02238984  0.79381182    -0.62600
O1214       O  0.74702266  0.02442924  0.70348993    -0.71000
O1215       O  0.74929147  0.47429263  0.70277019    -0.70500
O1216       O  0.74730659  0.47228577  0.79337155    -0.61800
O1217       O  0.70276290  0.47326313  0.74693844    -0.74300
O1218       O  0.79354566  0.47309132  0.74918527    -0.73100
Cu1219     Cu  0.74788979  0.02513287  0.74867027     1.04600
Cu1220     Cu  0.74819197  0.47146983  0.74799647     1.04300
C1221       C  0.80774585  0.49815937  0.74844812     0.93200
C1222       C  0.68826700  0.49833727  0.74862197     0.92400
C1223       C  0.74839107  0.49715469  0.80799175     0.84500
C1224       C  0.74853123  0.49963449  0.68877318     0.90800
C1225       C  0.75045210  0.49914909  0.90544587    -0.05500
C1226       C  0.74270445  0.47237169  0.89031080    -0.32900
C1227       C  0.74208068  0.47117133  0.85869969     0.36300
C1228       C  0.74925117  0.49710461  0.84150125    -0.05800
C1229       C  0.75757188  0.02365447  0.85668452    -0.32800
C1230       C  0.75854847  0.02473880  0.88821097     0.36200
H1231       H  0.73667601  0.45229817  0.90299694     0.16600
O1232       O  0.73430087  0.44453950  0.84499174    -0.60300
H1233       H  0.76375649  0.04373508  0.84408563     0.16600
O1234       O  0.76776936  0.05094423  0.90183216    -0.60400
H1235       H  0.78996475  0.04855646  0.90444993     0.43600
H1236       H  0.71191229  0.44520023  0.84341174     0.43600
C1237       C  0.74955282  0.50253838  0.59153696    -0.05500
C1238       C  0.75918094  0.47636449  0.60699385    -0.32900
C1239       C  0.75951114  0.47527514  0.63851004     0.36300
C1240       C  0.74938513  0.50042227  0.65535808    -0.05800
C1241       C  0.74017465  0.02679673  0.63992700    -0.32800
C1242       C  0.74021708  0.02801260  0.60834276     0.36200
H1243       H  0.76693913  0.45665688  0.59461949     0.16600
O1244       O  0.77019315  0.44959340  0.65250869    -0.60300
H1245       H  0.73252213  0.04650617  0.65235463     0.16600
O1246       O  0.73084035  0.05414007  0.59425606    -0.60400
H1247       H  0.70869750  0.05187643  0.59151680     0.43600
H1248       H  0.79215233  0.45306959  0.65542794     0.43600
C1249       C  0.00235761  0.25035830  0.90911000    -0.05500
C1250       C  0.97725058  0.26160878  0.89305513    -0.32900
C1251       C  0.97689281  0.26152289  0.86147235     0.36300
C1252       C  0.00185556  0.24979619  0.84530683    -0.05800
C1253       C  0.52690313  0.23845648  0.86136700    -0.32800
C1254       C  0.52718716  0.23839834  0.89294154     0.36200
H1255       H  0.95793870  0.27094566  0.90500248     0.16600
O1256       O  0.95215633  0.27331010  0.84670585    -0.60300
H1257       H  0.54617606  0.22904538  0.84941874     0.16600
O1258       O  0.55165041  0.22605066  0.90769982    -0.60400
H1259       H  0.54620788  0.20462475  0.91144195     0.43600
H1260       H  0.95629304  0.29524631  0.84459454     0.43600
C1261       C  0.00193657  0.25021802  0.59522241    -0.05500
C1262       C  0.52961122  0.24774002  0.61076827    -0.32900
C1263       C  0.53058197  0.24679210  0.64234186     0.36300
C1264       C  0.00347861  0.24816643  0.65920912    -0.05800
C1265       C  0.97582010  0.25030707  0.64364732    -0.32800
C1266       C  0.97485266  0.25122507  0.61209292     0.36200
H1267       H  0.55077239  0.24654615  0.59845936     0.16600
O1268       O  0.55818911  0.24404360  0.65631238    -0.60300
H1269       H  0.95465345  0.25144922  0.65594454     0.16600
O1270       O  0.94722702  0.25366711  0.59813715    -0.60400
H1271       H  0.93992653  0.23258437  0.59620377     0.43600
H1272       H  0.56595387  0.26499227  0.65781899     0.43600
C1273       C  0.59107372  0.49674257  0.75083221    -0.05500
C1274       C  0.60688200  0.01735520  0.76879386    -0.32900
C1275       C  0.63853413  0.01858481  0.76773924     0.36300
C1276       C  0.65485573  0.49822332  0.74934976    -0.05800
C1277       C  0.63899035  0.47710310  0.73193068    -0.32800
C1278       C  0.60730822  0.47662784  0.73216532     0.36200
H1279       H  0.59462544  0.03299804  0.78319451     0.16600
O1280       O  0.65335413  0.03894504  0.78566897    -0.60300
H1281       H  0.65118000  0.46120486  0.71775462     0.16600
O1282       O  0.59242705  0.45565736  0.71498700    -0.60400
H1283       H  0.59110254  0.46470891  0.69450072     0.43600
H1284       H  0.65287907  0.05827388  0.77421792     0.43600
C1285       C  0.84109482  0.49808340  0.74878108    -0.05500
C1286       C  0.85690150  0.01761850  0.72946161    -0.32900
C1287       C  0.88859246  0.01781562  0.72931312     0.36300
C1288       C  0.90491173  0.49885834  0.74925505    -0.05800
C1289       C  0.88906107  0.47970771  0.76892233    -0.32800
C1290       C  0.85738654  0.47883751  0.76841048     0.36200
H1291       H  0.84463784  0.03247929  0.71417538     0.16600
O1292       O  0.90338373  0.03690618  0.70990729    -0.60300
H1293       H  0.90129153  0.46502586  0.78440378     0.16600
O1294       O  0.84251884  0.46005855  0.78806726    -0.60400
H1295       H  0.84225091  0.44003529  0.77800117     0.43600
H1296       H  0.90701297  0.05558997  0.72168964     0.43600
C1297       C  0.49896737  0.40502583  0.75043020    -0.05500
C1298       C  0.98117508  0.38895651  0.77115162    -0.32900
C1299       C  0.98182590  0.35728108  0.77175548     0.36300
C1300       C  0.50090371  0.34127089  0.75185149    -0.05800
C1301       C  0.51926532  0.35732088  0.73166529    -0.32800
C1302       C  0.51807366  0.38899282  0.73054820     0.36200
H1303       H  0.96652373  0.40100178  0.78671909     0.16600
O1304       O  0.96412550  0.34218551  0.79221445    -0.60300
H1305       H  0.53421231  0.34524712  0.71640170     0.16600
O1306       O  0.53667864  0.40412135  0.71094549    -0.60400
H1307       H  0.52584883  0.40413479  0.69132583     0.43600
H1308       H  0.97732913  0.33875550  0.81003564     0.43600
C1309       C  0.00101196  0.09136576  0.75165206    -0.05500
C1310       C  0.98533919  0.10755144  0.77406110    -0.32900
C1311       C  0.98610908  0.13922534  0.77477624     0.36300
C1312       C  0.00358000  0.15515868  0.75355747    -0.05800
C1313       C  0.52015761  0.13904312  0.73182889    -0.32800
C1314       C  0.51855259  0.10739312  0.73041940     0.36200
H1315       H  0.97196533  0.09564377  0.79074058     0.16600
O1316       O  0.97050655  0.15441289  0.79689630    -0.60300
H1317       H  0.53374453  0.15107763  0.71540981     0.16600
O1318       O  0.53502326  0.09229556  0.70887527    -0.60400
H1319       H  0.52246646  0.09324838  0.69031952     0.43600
H1320       H  0.94942562  0.15606133  0.78933368     0.43600
C1321       C  0.59262131  0.50205881  0.00006605    -0.05500
C1322       C  0.60879109  0.48647310  0.52268997    -0.32900
C1323       C  0.64049545  0.48559377  0.52236055     0.36300
C1324       C  0.65644352  0.50091120  0.99952587    -0.05800
C1325       C  0.64039971  0.01712070  0.97741730    -0.32800
C1326       C  0.60872857  0.01739689  0.97726508     0.36200
H1327       H  0.59681591  0.47458669  0.54042090     0.16600
O1328       O  0.65567888  0.47012459  0.54467891    -0.60300
H1329       H  0.65248621  0.02928239  0.95994557     0.16600
O1330       O  0.59375294  0.03369374  0.95540676    -0.60400
H1331       H  0.59326715  0.02025967  0.93750712     0.43600
H1332       H  0.66056561  0.48555650  0.56012288     0.43600
C1333       C  0.84244858  0.50267626  0.49965472    -0.05500
C1334       C  0.85816075  0.48305740  0.51921486    -0.32900
C1335       C  0.88983780  0.48295155  0.52015692     0.36300
C1336       C  0.90625977  0.00216759  0.50082557    -0.05800
C1337       C  0.89053247  0.02154388  0.98103368    -0.32800
C1338       C  0.85884403  0.02232601  0.98077145     0.36200
H1339       H  0.84581292  0.46796368  0.53400693     0.16600
O1340       O  0.90452469  0.46359189  0.53961347    -0.60300
H1341       H  0.90286729  0.03642180  0.96601361     0.16600
O1342       O  0.84411797  0.04140692  0.96107214    -0.60400
H1343       H  0.84310259  0.06120807  0.97153855     0.43600
H1344       H  0.90836230  0.44494024  0.52776559     0.43600
C1345       C  0.50078865  0.40855044  0.99934486    -0.05500
C1346       C  0.51472923  0.39290544  0.52335849    -0.32900
C1347       C  0.51578217  0.36123598  0.52387753     0.36300
C1348       C  0.50191587  0.34468925  0.00071061    -0.05800
C1349       C  0.98782519  0.36012166  0.97676940    -0.32800
C1350       C  0.98756143  0.39182842  0.97571178     0.36200
H1351       H  0.52514424  0.40526593  0.54167510     0.16600
O1352       O  0.52931567  0.34662599  0.54774885    -0.60300
H1353       H  0.97727996  0.34752126  0.95868316     0.16600
O1354       O  0.97404105  0.40615696  0.95166118    -0.60400
H1355       H  0.95281211  0.40980941  0.95801597     0.43600
H1356       H  0.55102926  0.34505538  0.54225316     0.43600
C1357       C  0.00162453  0.15899411  0.50232319    -0.05500
C1358       C  0.99168643  0.14391881  0.97647671    -0.32900
C1359       C  0.99088469  0.11229997  0.97571182     0.36300
C1360       C  0.99966594  0.09524591  0.50137615    -0.05800
C1361       C  0.50937185  0.11062473  0.52738228    -0.32800
C1362       C  0.51075189  0.14227778  0.52780676     0.36200
H1363       H  0.98472027  0.15674103  0.95672079     0.16600
O1364       O  0.98141179  0.09840938  0.94974971    -0.60300
H1365       H  0.51628651  0.09810501  0.54732656     0.16600
O1366       O  0.52006006  0.15672041  0.55352883    -0.60400
H1367       H  0.54227311  0.15888661  0.55128581     0.43600
H1368       H  0.95918971  0.09636358  0.95199445     0.43600
O1369       O  0.95411298  0.50096667  0.02575493    -0.73000
O1370       O  0.54504746  0.50141166  0.02551069    -0.73900
O1371       O  0.49924566  0.54695599  0.02611093    -0.62600
O1372       O  0.00036421  0.95599711  0.02485648    -0.71000
O1373       O  0.99920375  0.95690020  0.47479441    -0.70500
O1374       O  0.49908189  0.54760154  0.47607198    -0.61800
O1375       O  0.54457979  0.00235462  0.47541045    -0.74300
O1376       O  0.95378770  0.00292265  0.47564521    -0.73100
Cu1377     Cu  0.49964683  0.50132605  0.02732615     1.04600
Cu1378     Cu  0.99915279  0.00243954  0.47375546     1.04300
C1379       C  0.93962801  0.50195714  0.00077962     0.93200
C1380       C  0.55917416  0.00198234  0.00033481     0.92400
C1381       C  0.99919841  0.56169501  0.00119334     0.84500
C1382       C  0.50000770  0.94206101  0.99960785     0.90800
O1383       O  0.49773072  0.95285787  0.22531189    -0.73000
O1384       O  0.49997301  0.54384092  0.22594389    -0.73900
O1385       O  0.54362551  0.49663297  0.22580827    -0.62600
O1386       O  0.95302349  0.99991701  0.22497430    -0.71000
O1387       O  0.95222241  0.99760958  0.27505301    -0.70500
O1388       O  0.54330611  0.49807851  0.27593579    -0.61800
O1389       O  0.99739472  0.54331943  0.27597580    -0.74300
O1390       O  0.99791035  0.95253508  0.27545671    -0.73100
Cu1391     Cu  0.49850622  0.49834249  0.22376787     1.04600
Cu1392     Cu  0.99765533  0.99788153  0.27736249     1.04300
C1393       C  0.49807397  0.93838383  0.25034983     0.93200
C1394       C  0.99932953  0.55793569  0.25111855     0.92400
C1395       C  0.55775047  0.99706178  0.25091942     0.84500
C1396       C  0.93830156  0.49886148  0.24978291     0.90800
O1397       O  0.52710992  0.70602394  0.00301495    -0.73000
O1398       O  0.52705409  0.79691399  0.00215178    -0.73900
O1399       O  0.52703488  0.75146998  0.04749937    -0.62600
O1400       O  0.52714295  0.75094664  0.45709717    -0.71000
O1401       O  0.97695029  0.75188658  0.45655800    -0.70500
O1402       O  0.97691431  0.75185680  0.04707999    -0.61800
O1403       O  0.97678214  0.79737523  0.50114423    -0.74300
O1404       O  0.97681313  0.70665993  0.50172557    -0.73100
Cu1405     Cu  0.52884353  0.75138807  0.00241419     1.04600
Cu1406     Cu  0.97510983  0.75199581  0.50168642     1.04300
C1407       C  0.00188694  0.69213364  0.00246478     0.93200
C1408       C  0.00193181  0.81141324  0.50139763     0.92400
C1409       C  0.00187985  0.75130633  0.06170067     0.84500
C1410       C  0.00217850  0.75109439  0.44249648     0.90800
O1411       O  0.52706623  0.79392604  0.25195823    -0.73000
O1412       O  0.52864394  0.70279250  0.25245770    -0.73900
O1413       O  0.52841195  0.74828059  0.20728233    -0.62600
O1414       O  0.52733960  0.74851467  0.29777975    -0.71000
O1415       O  0.97714589  0.74904916  0.29743524    -0.70500
O1416       O  0.97830578  0.74745543  0.20704875    -0.61800
O1417       O  0.97839196  0.70279977  0.25351246    -0.74300
O1418       O  0.97680368  0.79341714  0.25180914    -0.73100
Cu1419     Cu  0.52964675  0.74838547  0.25242444     1.04600
Cu1420     Cu  0.97594042  0.74812525  0.25237143     1.04300
C1421       C  0.00165557  0.80796132  0.25187675     0.93200
C1422       C  0.00361644  0.68849671  0.25323971     0.92400
C1423       C  0.00345666  0.74784725  0.19275278     0.84500
C1424       C  0.00211582  0.74914568  0.31193705     0.90800
O1425       O  0.70362590  0.52605296  0.49735615    -0.73000
O1426       O  0.79429312  0.52719453  0.49816447    -0.73900
O1427       O  0.74951272  0.52543386  0.45264726    -0.62600
O1428       O  0.74847761  0.52734609  0.04327188    -0.71000
O1429       O  0.75008764  0.97718336  0.04428038    -0.70500
O1430       O  0.74981062  0.97527987  0.45400308    -0.61800
O1431       O  0.79531847  0.97695417  0.99956928    -0.74300
O1432       O  0.70436695  0.97581947  0.99992491    -0.73100
Cu1433     Cu  0.74891715  0.52826135  0.49781663     1.04600
Cu1434     Cu  0.74991085  0.97456009  0.99940846     1.04300
C1435       C  0.68972653  0.00085918  0.49891637     0.93200
C1436       C  0.80911046  0.00227419  0.99904523     0.92400
C1437       C  0.74995659  0.00000861  0.43893547     0.84500
C1438       C  0.74929700  0.00247807  0.05812224     0.90800
O1439       O  0.79332790  0.52332322  0.24748152    -0.73000
O1440       O  0.70246263  0.52340281  0.24982120    -0.73900
O1441       O  0.74901139  0.52238647  0.29381212    -0.62600
O1442       O  0.74703682  0.52442057  0.20349249    -0.71000
O1443       O  0.74929078  0.97430319  0.20276698    -0.70500
O1444       O  0.74730308  0.97228646  0.29336682    -0.61800
O1445       O  0.70276125  0.97326099  0.24693316    -0.74300
O1446       O  0.79354403  0.97310758  0.24918272    -0.73100
Cu1447     Cu  0.74790172  0.52512611  0.24867112     1.04600
Cu1448     Cu  0.74819059  0.97147629  0.24799222     1.04300
C1449       C  0.80774002  0.99817821  0.24844780     0.93200
C1450       C  0.68826199  0.99833286  0.24862081     0.92400
C1451       C  0.74838353  0.99715400  0.30798941     0.84500
C1452       C  0.74852534  0.99964525  0.18877080     0.90800
C1453       C  0.75045314  0.99913514  0.40544266    -0.05500
C1454       C  0.74268098  0.97236617  0.39030575    -0.32900
C1455       C  0.74205136  0.97117079  0.35869438     0.36300
C1456       C  0.74924317  0.99709979  0.34149849    -0.05800
C1457       C  0.75755883  0.52366281  0.35668551    -0.32800
C1458       C  0.75853172  0.52475082  0.38821205     0.36200
H1459       H  0.73663626  0.95229693  0.40299075     0.16600
O1460       O  0.73424208  0.94454925  0.34498354    -0.60300
H1461       H  0.76373023  0.54374695  0.34408568     0.16600
O1462       O  0.76773329  0.55096404  0.40183151    -0.60400
H1463       H  0.78993034  0.54859279  0.40444919     0.43600
H1464       H  0.71185434  0.94523680  0.34339989     0.43600
C1465       C  0.74954959  0.00254162  0.09153417    -0.05500
C1466       C  0.75919531  0.97637609  0.10699401    -0.32900
C1467       C  0.75952402  0.97529007  0.13851031     0.36300
C1468       C  0.74938011  0.00043213  0.15535561    -0.05800
C1469       C  0.74019851  0.52679759  0.13993365    -0.32800
C1470       C  0.74023945  0.52801758  0.10834993     0.36200
H1471       H  0.76696834  0.95667285  0.09462183     0.16600
O1472       O  0.77022207  0.94961657  0.15251201    -0.60300
H1473       H  0.73256072  0.54651100  0.15236383     0.16600
O1474       O  0.73088169  0.55415411  0.09426762    -0.60400
H1475       H  0.70873703  0.55190722  0.09152814     0.43600
H1476       H  0.79217859  0.95310763  0.15543248     0.43600
C1477       C  0.00236271  0.75040023  0.40911489    -0.05500
C1478       C  0.97729757  0.76173932  0.39305673    -0.32900
C1479       C  0.97694904  0.76166167  0.36147334     0.36300
C1480       C  0.00187515  0.74984987  0.34531380    -0.05800
C1481       C  0.52688395  0.73843182  0.36137757    -0.32800
C1482       C  0.52715905  0.73836777  0.39295195     0.36200
H1483       H  0.95801418  0.77113788  0.40500230     0.16600
O1484       O  0.95226017  0.77353964  0.34669884    -0.60300
H1485       H  0.54612651  0.72895477  0.34943183     0.16600
O1486       O  0.55157543  0.72593367  0.40771646    -0.60400
H1487       H  0.54606215  0.70452380  0.41144362     0.43600
H1488       H  0.95644498  0.79547241  0.34465507     0.43600
C1489       C  0.00192443  0.75018150  0.09522807    -0.05500
C1490       C  0.52960582  0.74775803  0.11077249    -0.32900
C1491       C  0.53058141  0.74681544  0.14234633     0.36300
C1492       C  0.00347495  0.74813267  0.15921653    -0.05800
C1493       C  0.97581156  0.75021533  0.14365588    -0.32800
C1494       C  0.97484033  0.75113392  0.11210096     0.36200
H1495       H  0.55076872  0.74661305  0.09846250     0.16600
O1496       O  0.55819649  0.74414113  0.15631425    -0.60300
H1497       H  0.95464368  0.75131354  0.15595448     0.16600
O1498       O  0.94720964  0.75352341  0.09814720    -0.60400
H1499       H  0.93995414  0.73242582  0.09620460     0.43600
H1500       H  0.56590423  0.76511128  0.15782108     0.43600
C1501       C  0.59106952  0.99673709  0.25082291    -0.05500
C1502       C  0.60688776  0.51738729  0.26877130    -0.32900
C1503       C  0.63853978  0.51861759  0.26771186     0.36300
C1504       C  0.65485163  0.99821498  0.24934940    -0.05800
C1505       C  0.63898711  0.97711871  0.23190119    -0.32800
C1506       C  0.60730484  0.97664556  0.23213149     0.36200
H1507       H  0.59463105  0.53304861  0.28315197     0.16600
O1508       O  0.65335933  0.53900361  0.28561254    -0.60300
H1509       H  0.65117758  0.96123921  0.21770510     0.16600
O1510       O  0.59242433  0.95569887  0.21492360    -0.60400
H1511       H  0.59110893  0.96477458  0.19444734     0.43600
H1512       H  0.65287781  0.55831799  0.27413731     0.43600
C1513       C  0.84108895  0.99810713  0.24878423    -0.05500
C1514       C  0.85690863  0.51759015  0.22945631    -0.32900
C1515       C  0.88859929  0.51778811  0.22930825     0.36300
C1516       C  0.90490602  0.99887619  0.24925455    -0.05800
C1517       C  0.88905458  0.97972874  0.26892412    -0.32800
C1518       C  0.85738007  0.97886251  0.26841517     0.36200
H1519       H  0.84464494  0.53244690  0.21416619     0.16600
O1520       O  0.90338997  0.53687202  0.20989538    -0.60300
H1521       H  0.90128444  0.96504587  0.28440511     0.16600
O1522       O  0.84251166  0.96008846  0.28807617    -0.60400
H1523       H  0.84224390  0.94006264  0.27801519     0.43600
H1524       H  0.90701973  0.55555985  0.22167110     0.43600
C1525       C  0.49895894  0.90502656  0.25041203    -0.05500
C1526       C  0.98118095  0.88895497  0.27114726    -0.32900
C1527       C  0.98183521  0.85727967  0.27175007     0.36300
C1528       C  0.50090169  0.84127160  0.25182869    -0.05800
C1529       C  0.51923655  0.85732303  0.23161970    -0.32800
C1530       C  0.51804168  0.88899520  0.23050551     0.36200
H1531       H  0.96654218  0.90099837  0.28672784     0.16600
O1532       O  0.96415807  0.84218183  0.29222709    -0.60300
H1533       H  0.53416591  0.84525040  0.21633824     0.16600
O1534       O  0.53662250  0.90412549  0.21088115    -0.60400
H1535       H  0.52576965  0.90413833  0.19127420     0.43600
H1536       H  0.97736403  0.83880537  0.31005618     0.43600
C1537       C  0.00101452  0.59136521  0.25167016    -0.05500
C1538       C  0.98535204  0.60754798  0.27408880    -0.32900
C1539       C  0.98612856  0.63922177  0.27481296     0.36300
C1540       C  0.00359575  0.65515802  0.25359318    -0.05800
C1541       C  0.52016129  0.63904526  0.23185561    -0.32800
C1542       C  0.51854945  0.60739586  0.23043729     0.36200
H1543       H  0.97198131  0.59563829  0.29076934     0.16600
O1544       O  0.97053546  0.65440599  0.29694181    -0.60300
H1545       H  0.53374261  0.65108184  0.21543341     0.16600
O1546       O  0.53500816  0.59230192  0.20888170    -0.60400
H1547       H  0.52244373  0.59326299  0.19033146     0.43600
H1548       H  0.94945122  0.65605526  0.28938858     0.43600
C1549       C  0.59262687  0.00204490  0.50005416    -0.05500
C1550       C  0.60879452  0.98648130  0.02268980    -0.32900
C1551       C  0.64049877  0.98560134  0.02236269     0.36300
C1552       C  0.65644870  0.00089100  0.49951477    -0.05800
C1553       C  0.64039350  0.51715361  0.47744327    -0.32800
C1554       C  0.60872228  0.51742788  0.47729196     0.36200
H1555       H  0.59681862  0.97461132  0.04043121     0.16600
O1556       O  0.65568117  0.97015382  0.04469652    -0.60300
H1557       H  0.65247853  0.52933054  0.45998117     0.16600
O1558       O  0.59374462  0.53374094  0.45544701    -0.60400
H1559       H  0.59325524  0.52031927  0.43753818     0.43600
H1560       H  0.66056475  0.98560031  0.06012697     0.43600
C1561       C  0.84245131  0.00268102  0.99965026    -0.05500
C1562       C  0.85816597  0.98306887  0.01921476    -0.32900
C1563       C  0.88984296  0.98296556  0.02015489     0.36300
C1564       C  0.90625527  0.50215817  0.00083286    -0.05800
C1565       C  0.89053222  0.52154003  0.48104589    -0.32800
C1566       C  0.85884400  0.52232559  0.48078288     0.36200
H1567       H  0.84582010  0.96797788  0.03401123     0.16600
O1568       O  0.90453200  0.96361045  0.03961429    -0.60300
H1569       H  0.90286910  0.53642144  0.46603095     0.16600
O1570       O  0.84412074  0.54141527  0.46108994    -0.60400
H1571       H  0.84311195  0.56121406  0.47156137     0.43600
H1572       H  0.90837629  0.94495933  0.02776766     0.43600
C1573       C  0.50078709  0.90854952  0.49933994    -0.05500
C1574       C  0.51475972  0.89291224  0.02333683    -0.32900
C1575       C  0.51581323  0.86124272  0.02386425     0.36300
C1576       C  0.50191487  0.84468772  0.50072320    -0.05800
C1577       C  0.98779593  0.86011525  0.47679247    -0.32800
C1578       C  0.98753162  0.89182215  0.47572629     0.36200
H1579       H  0.52519976  0.90527821  0.04163545     0.16600
O1580       O  0.52937869  0.84664008  0.04772197    -0.60300
H1581       H  0.97722914  0.84751055  0.45872183     0.16600
O1582       O  0.97398237  0.90614536  0.45168865    -0.60400
H1583       H  0.95276199  0.90980221  0.45806937     0.43600
H1584       H  0.55108458  0.84506635  0.04219692     0.43600
C1585       C  0.00159562  0.65899139  0.00230660    -0.05500
C1586       C  0.99164943  0.64391037  0.47646658    -0.32900
C1587       C  0.99084512  0.61229109  0.47570971     0.36300
C1588       C  0.99963429  0.59524348  0.00137507    -0.05800
C1589       C  0.50935590  0.61062777  0.02737063    -0.32800
C1590       C  0.51073571  0.64228045  0.02778693     0.36200
H1591       H  0.98467947  0.65672861  0.45670943     0.16600
O1592       O  0.98136026  0.59839452  0.44975506    -0.60300
H1593       H  0.51628592  0.59811232  0.04731235     0.16600
O1594       O  0.52005729  0.65672861  0.05350093    -0.60400
H1595       H  0.54226914  0.65889410  0.05124606     0.43600
H1596       H  0.95914102  0.59633682  0.45201658     0.43600
O1597       O  0.95411322  0.50096665  0.52575548    -0.73000
O1598       O  0.54504772  0.50141109  0.52551130    -0.73900
O1599       O  0.49924589  0.54695586  0.52611104    -0.62600
O1600       O  0.00036456  0.95599624  0.52485724    -0.71000
O1601       O  0.99920151  0.95690101  0.97479363    -0.70500
O1602       O  0.49908152  0.54760204  0.97607175    -0.61800
O1603       O  0.54457825  0.00235524  0.97540925    -0.74300
O1604       O  0.95378619  0.00292377  0.97564534    -0.73100
Cu1605     Cu  0.49964705  0.50132588  0.52732673     1.04600
Cu1606     Cu  0.99915116  0.00244041  0.97375494     1.04300
C1607       C  0.93962833  0.50195660  0.50078013     0.93200
C1608       C  0.55917527  0.00198107  0.50033624     0.92400
C1609       C  0.99919870  0.56169483  0.50119338     0.84500
C1610       C  0.50000909  0.94206014  0.49960856     0.90800
O1611       O  0.49772951  0.95285816  0.72531254    -0.73000
O1612       O  0.49997354  0.54384141  0.72594341    -0.73900
O1613       O  0.54362485  0.49663249  0.72580893    -0.62600
O1614       O  0.95302331  0.99991814  0.72497325    -0.71000
O1615       O  0.95222126  0.99761091  0.77505196    -0.70500
O1616       O  0.54330487  0.49807845  0.77593645    -0.61800
O1617       O  0.99739509  0.54332051  0.77597520    -0.74300
O1618       O  0.99790823  0.95253575  0.77545742    -0.73100
Cu1619     Cu  0.49850551  0.49834303  0.72376812     1.04600
Cu1620     Cu  0.99765419  0.99788221  0.77736241     1.04300
C1621       C  0.49807197  0.93838432  0.75035064     0.93200
C1622       C  0.99933084  0.55793644  0.75111781     0.92400
C1623       C  0.55774982  0.99706151  0.75091997     0.84500
C1624       C  0.93830062  0.49886331  0.74978309     0.90800
O1625       O  0.52710992  0.70602318  0.50301443    -0.73000
O1626       O  0.52705642  0.79691298  0.50215121    -0.73900
O1627       O  0.52703727  0.75146928  0.54749893    -0.62600
O1628       O  0.52714312  0.75094795  0.95709772    -0.71000
O1629       O  0.97695044  0.75188697  0.95655702    -0.70500
O1630       O  0.97691672  0.75185747  0.54708082    -0.61800
O1631       O  0.97677988  0.79737532  0.00114345    -0.74300
O1632       O  0.97681323  0.70665974  0.00172385    -0.73100
Cu1633     Cu  0.52884469  0.75138708  0.50241364     1.04600
Cu1634     Cu  0.97510872  0.75199567  0.00168532     1.04300
C1635       C  0.00188661  0.69213345  0.50246540     0.93200
C1636       C  0.00192923  0.81141392  0.00139747     0.92400
C1637       C  0.00188262  0.75130661  0.56170084     0.84500
C1638       C  0.00217908  0.75109551  0.94249625     0.90800
O1639       O  0.52706740  0.79392752  0.75195909    -0.73000
O1640       O  0.52864938  0.70279370  0.75245694    -0.73900
O1641       O  0.52841610  0.74828273  0.70728231    -0.62600
O1642       O  0.52734246  0.74851552  0.79777963    -0.71000
O1643       O  0.97714860  0.74904754  0.79743459    -0.70500
O1644       O  0.97830992  0.74745611  0.70704849    -0.61800
O1645       O  0.97839734  0.70279948  0.75351081    -0.74300
O1646       O  0.97680479  0.79341656  0.75180993    -0.73100
Cu1647     Cu  0.52965022  0.74838696  0.75242444     1.04600
Cu1648     Cu  0.97594380  0.74812468  0.75237094     1.04300
C1649       C  0.00165604  0.80796180  0.75187807     0.93200
C1650       C  0.00362225  0.68849718  0.75323837     0.92400
C1651       C  0.00346085  0.74784880  0.69275271     0.84500
C1652       C  0.00211830  0.74914534  0.81193670     0.90800
O1653       O  0.70362572  0.52605791  0.99735647    -0.73000
O1654       O  0.79429320  0.52719906  0.99816436    -0.73900
O1655       O  0.74951262  0.52543810  0.95264723    -0.62600
O1656       O  0.74847723  0.52734097  0.54327166    -0.71000
O1657       O  0.75008995  0.97718370  0.54428044    -0.70500
O1658       O  0.74980978  0.97528194  0.95400288    -0.61800
O1659       O  0.79532000  0.97695439  0.49956869    -0.74300
O1660       O  0.70436844  0.97581788  0.49992563    -0.73100
Cu1661     Cu  0.74891715  0.52826612  0.99781671     1.04600
Cu1662     Cu  0.74991243  0.97455934  0.49940860     1.04300
C1663       C  0.68972546  0.00086100  0.99891613     0.93200
C1664       C  0.80911168  0.00227458  0.49904431     0.92400
C1665       C  0.74995631  0.00001092  0.93893563     0.84500
C1666       C  0.74929923  0.00247867  0.55812180     0.90800
O1667       O  0.79332642  0.52332294  0.74748070    -0.73000
O1668       O  0.70246123  0.52340139  0.74982182    -0.73900
O1669       O  0.74901077  0.52238682  0.79381201    -0.62600
O1670       O  0.74703440  0.52441833  0.70349209    -0.71000
O1671       O  0.74928989  0.97430386  0.70276630    -0.70500
O1672       O  0.74730308  0.97228844  0.79336661    -0.61800
O1673       O  0.70276057  0.97326286  0.74693308    -0.74300
O1674       O  0.79354317  0.97310768  0.74918154    -0.73100
Cu1675     Cu  0.74790022  0.52512522  0.74867087     1.04600
Cu1676     Cu  0.74818986  0.97147744  0.74799175     1.04300
C1677       C  0.80773959  0.99817800  0.74844598     0.93200
C1678       C  0.68826146  0.99833481  0.74862058     0.92400
C1679       C  0.74838422  0.99715609  0.80798906     0.84500
C1680       C  0.74852507  0.99964601  0.68877018     0.90800
C1681       C  0.75045352  0.99913780  0.90544270    -0.05500
C1682       C  0.74268499  0.97236781  0.89030565    -0.32900
C1683       C  0.74205593  0.97117226  0.85869429     0.36300
C1684       C  0.74924431  0.99710216  0.84149830    -0.05800
C1685       C  0.75755966  0.52366449  0.85668538    -0.32800
C1686       C  0.75853243  0.52475335  0.88821192     0.36200
H1687       H  0.73664287  0.95229769  0.90299052     0.16600
O1688       O  0.73425099  0.94454938  0.84498354    -0.60300
H1689       H  0.76373143  0.54374818  0.84408500     0.16600
O1690       O  0.76773453  0.55096670  0.90183077    -0.60400
H1691       H  0.78993152  0.54859495  0.90444867     0.43600
H1692       H  0.71186314  0.94523295  0.84340043     0.43600
C1693       C  0.74955248  0.00254283  0.59153371    -0.05500
C1694       C  0.75920102  0.97637851  0.60699384    -0.32900
C1695       C  0.75952913  0.97529257  0.63851014     0.36300
C1696       C  0.74938120  0.00043319  0.65535507    -0.05800
C1697       C  0.74019895  0.52679467  0.63993311    -0.32800
C1698       C  0.74024033  0.52801407  0.60834933     0.36200
H1699       H  0.76697669  0.95667614  0.59462183     0.16600
O1700       O  0.77023080  0.94962076  0.65251225    -0.60300
H1701       H  0.73256423  0.54650953  0.65236281     0.16600
O1702       O  0.73088692  0.55415184  0.59426655    -0.60400
H1703       H  0.70874178  0.55190874  0.59152740     0.43600
H1704       H  0.79218661  0.95311542  0.65543361     0.43600
C1705       C  0.00236432  0.75040179  0.90911456    -0.05500
C1706       C  0.97729688  0.76173517  0.89305597    -0.32900
C1707       C  0.97694855  0.76165687  0.86147264     0.36300
C1708       C  0.00187722  0.74985007  0.84531343    -0.05800
C1709       C  0.52688867  0.73843812  0.86137754    -0.32800
C1710       C  0.52716367  0.73837492  0.89295189     0.36200
H1711       H  0.95801122  0.77112959  0.90500117     0.16600
O1712       O  0.95225716  0.77352927  0.84669792    -0.60300
H1713       H  0.54613349  0.72896534  0.84943215     0.16600
O1714       O  0.55158318  0.72594741  0.90771663    -0.60400
H1715       H  0.54607583  0.70453590  0.91144336     0.43600
H1716       H  0.95643927  0.79546218  0.84464982     0.43600
C1717       C  0.00192781  0.75018253  0.59522821    -0.05500
C1718       C  0.52960923  0.74775690  0.61077225    -0.32900
C1719       C  0.53058523  0.74681473  0.64234611     0.36300
C1720       C  0.00347906  0.74813448  0.65921657    -0.05800
C1721       C  0.97581564  0.75021958  0.64365630    -0.32800
C1722       C  0.97484402  0.75113779  0.61210147     0.36200
H1723       H  0.55077184  0.74660977  0.59846188     0.16600
O1724       O  0.55820025  0.74413798  0.65631375    -0.60300
H1725       H  0.95464801  0.75131999  0.65595511     0.16600
O1726       O  0.94721331  0.75352975  0.59814817    -0.60400
H1727       H  0.93995554  0.73243286  0.59620631     0.43600
H1728       H  0.56591037  0.76510731  0.65781954     0.43600
C1729       C  0.59106889  0.99673727  0.75082354    -0.05500
C1730       C  0.60688677  0.51738571  0.76877294    -0.32900
C1731       C  0.63853880  0.51861576  0.76771372     0.36300
C1732       C  0.65485101  0.99821688  0.74934901    -0.05800
C1733       C  0.63898672  0.97711985  0.73190145    -0.32800
C1734       C  0.60730448  0.97664583  0.73213228     0.36200
H1735       H  0.59463006  0.53304714  0.78315348     0.16600
O1736       O  0.65335842  0.53900158  0.78561454    -0.60300
H1737       H  0.65117736  0.96124032  0.71770553     0.16600
O1738       O  0.59242427  0.95569854  0.71492488    -0.60400
H1739       H  0.59110873  0.96477380  0.69444842     0.43600
H1740       H  0.65287751  0.55831590  0.77413916     0.43600
C1741       C  0.84108854  0.99810627  0.74878152    -0.05500
C1742       C  0.85690745  0.51759391  0.72945938    -0.32900
C1743       C  0.88859813  0.51779246  0.72931147     0.36300
C1744       C  0.90490551  0.99887646  0.74925245    -0.05800
C1745       C  0.88905435  0.97972727  0.76892050    -0.32800
C1746       C  0.85737989  0.97886032  0.76841105     0.36200
H1747       H  0.84464359  0.53245291  0.71417156     0.16600
O1748       O  0.90338857  0.53687984  0.70990183    -0.60300
H1749       H  0.90128440  0.96504368  0.78440066     0.16600
O1750       O  0.84251180  0.96008421  0.78807030    -0.60400
H1751       H  0.84224440  0.94005934  0.77800744     0.43600
H1752       H  0.90701858  0.55556547  0.72168094     0.43600
C1753       C  0.49895685  0.90502710  0.75041304    -0.05500
C1754       C  0.98117490  0.88895523  0.77114469    -0.32900
C1755       C  0.98182973  0.85727984  0.77174767     0.36300
C1756       C  0.50090088  0.84127216  0.75183016    -0.05800
C1757       C  0.51923954  0.85732412  0.73162509    -0.32800
C1758       C  0.51804404  0.88899616  0.73051057     0.36200
H1759       H  0.96653268  0.90099848  0.78672219     0.16600
O1760       O  0.96414844  0.84218167  0.79222088    -0.60300
H1761       H  0.53417254  0.84525193  0.71634677     0.16600
O1762       O  0.53662861  0.90412684  0.71089008    -0.60400
H1763       H  0.52577935  0.90414047  0.69128114     0.43600
H1764       H  0.97735092  0.83880435  0.81005236     0.43600
C1765       C  0.00101775  0.59136589  0.75166923    -0.05500
C1766       C  0.98535810  0.60754926  0.77408935    -0.32900
C1767       C  0.98613612  0.63922293  0.77481359     0.36300
C1768       C  0.00360204  0.65515854  0.75359233    -0.05800
C1769       C  0.52016531  0.63904524  0.73185348    -0.32800
C1770       C  0.51855191  0.60739589  0.73043514     0.36200
H1771       H  0.97198816  0.59564018  0.79077096     0.16600
O1772       O  0.97054522  0.65440774  0.79694356    -0.60300
H1773       H  0.53374569  0.65108137  0.71543018     0.16600
O1774       O  0.53500803  0.59230140  0.70887798    -0.60400
H1775       H  0.52244167  0.59326260  0.69032905     0.43600
H1776       H  0.94946054  0.65605801  0.78939173     0.43600
C1777       C  0.59262594  0.00204630  0.00005252    -0.05500
C1778       C  0.60879540  0.98647035  0.52268485    -0.32900
C1779       C  0.64049965  0.98558991  0.52235704     0.36300
C1780       C  0.65644780  0.00089304  0.99951422    -0.05800
C1781       C  0.64039332  0.51714836  0.97743725    -0.32800
C1782       C  0.60872211  0.51742113  0.97728542     0.36200
H1783       H  0.59681938  0.97459325  0.54042145     0.16600
O1784       O  0.65568197  0.97013298  0.54468450    -0.60300
H1785       H  0.65247817  0.52931867  0.95997040     0.16600
O1786       O  0.59374431  0.53372471  0.95543357    -0.60400
H1787       H  0.59325648  0.52029598  0.93752998     0.43600
H1788       H  0.66056623  0.98557312  0.56012109     0.43600
C1789       C  0.84245258  0.00268175  0.49964970    -0.05500
C1790       C  0.85816711  0.98306751  0.51921228    -0.32900
C1791       C  0.88984404  0.98296389  0.52015254     0.36300
C1792       C  0.90625554  0.50215672  0.50083327    -0.05800
C1793       C  0.89053245  0.52154249  0.98104606    -0.32800
C1794       C  0.85884428  0.52232917  0.98078327     0.36200
H1795       H  0.84582118  0.96797500  0.53400717     0.16600
O1796       O  0.90453290  0.96360683  0.53961015    -0.60300
H1797       H  0.90286972  0.53642381  0.96603134     0.16600
O1798       O  0.84412153  0.54141957  0.96109062    -0.60400
H1799       H  0.84311364  0.56121833  0.97156216     0.43600
H1800       H  0.90837717  0.94495685  0.52776173     0.43600
C1801       C  0.50078512  0.90855048  0.99933923    -0.05500
C1802       C  0.51475418  0.89291125  0.52334196    -0.32900
C1803       C  0.51580812  0.86124176  0.52386929     0.36300
C1804       C  0.50191195  0.84468861  0.00072296    -0.05800
C1805       C  0.98778523  0.86011631  0.97679671    -0.32800
C1806       C  0.98752139  0.89182324  0.97573020     0.36200
H1807       H  0.52518792  0.90527711  0.54164425     0.16600
O1808       O  0.52936607  0.84663904  0.54773120    -0.60300
H1809       H  0.97721224  0.84751173  0.95872962     0.16600
O1810       O  0.97396443  0.90614671  0.95169700    -0.60400
H1811       H  0.95274674  0.90980554  0.95808537     0.43600
H1812       H  0.55107322  0.84506299  0.54221182     0.43600
C1813       C  0.00159487  0.65899143  0.50230725    -0.05500
C1814       C  0.99163698  0.64391038  0.97647086    -0.32900
C1815       C  0.99083263  0.61229107  0.97571423     0.36300
C1816       C  0.99963434  0.59524351  0.50137493    -0.05800
C1817       C  0.50934304  0.61062816  0.52737526    -0.32800
C1818       C  0.51072204  0.64228082  0.52779229     0.36200
H1819       H  0.98465699  0.65672866  0.95671724     0.16600
O1820       O  0.98133484  0.59839434  0.94976443    -0.60300
H1821       H  0.51626318  0.59811308  0.54732057     0.16600
O1822       O  0.52003059  0.65672927  0.55351088    -0.60400
H1823       H  0.54224317  0.65889740  0.55126586     0.43600
H1824       H  0.95911712  0.59633408  0.95203821     0.43600
loop_ 
_geom_bond_atom_site_label_1 
_geom_bond_atom_site_label_2 
_geom_bond_distance 
_geom_bond_site_symmetry_2 
_ccdc_geom_bond_type 
O1           C11   1.278       .  A
O1         Cu921   2.013       .  S
O2          C468   1.278       .  A
O2           Cu9   2.008   1_455  S
O3          C925   1.279       .  A
O3           Cu9   2.016       .  S
O4          C926   1.278   1_554  A
O4        Cu1377   2.006       .  S
O5         C1154   1.278       .  A
O5          Cu10   2.012       .  S
O6         C1153   1.276       .  A
O6        Cu1378   1.998       .  S
O7          C240   1.278       .  A
O7         Cu922   2.008   1_455  S
O8          C695   1.277       .  A
O8          Cu10   2.006       .  S
Cu9         O913   2.013       .  S
Cu9        O1372   2.006   1_645  S
Cu9       Cu1606   2.372   1_554  S
Cu10       O1374   1.998       .  S
Cu10        O919   2.008       .  S
Cu10      Cu1605   2.372       .  S
C11         O692   1.277   1_554  A
C11         C196   1.474       .  S
C12         O458   1.278       .  A
C12         O235   1.278   1_554  A
C12         C409   1.478       .  S
C13         O915   1.279       .  A
C13        O1146   1.276   1_554  A
C13         C220   1.482       .  S
C14         O916   1.278   1_556  A
C14        O1145   1.278   1_455  A
C14         C433   1.481       .  S
O15          C25   1.278       .  A
O15        Cu479   2.011       .  S
O16         C938   1.279       .  A
O16         Cu23   2.014   1_545  S
O17         C483   1.276       .  A
O17         Cu23   1.996   1_455  S
O18         C484   1.278       .  A
O18       Cu1391   2.011       .  S
O19         C484   1.278       .  A
O19         Cu24   2.010       .  S
O20         C483   1.279       .  A
O20       Cu1392   2.018   1_455  S
O21          C26   1.278       .  A
O21        Cu480   2.008   1_545  S
O22         C937   1.277       .  A
O22         Cu24   2.005       .  S
Cu23        O471   2.011       .  S
Cu23       O1386   2.011       .  S
Cu23      Cu1392   2.374       .  S
Cu24       O1388   2.018       .  S
Cu24        O477   2.008       .  S
Cu24      Cu1391   2.374       .  S
C25         O934   1.277       .  A
C25         C157   1.474       .  S
C26         O928   1.279       .  A
C26         C169   1.479       .  S
C27         O473   1.276       .  A
C27         O476   1.279       .  A
C27         C133   1.472       .  S
C28         O474   1.278       .  A
C28         O475   1.278       .  A
C28         C604   1.475       .  S
O29         C951   1.277       .  A
O29         Cu37   2.006       .  S
O30        C1180   1.278       .  A
O30         Cu37   2.012       .  S
O31         C953   1.277       .  A
O31         Cu37   1.998       .  S
O32         C954   1.278       .  A
O32        Cu265   2.008       .  S
O33          C42   1.277       .  A
O33         Cu38   2.000       .  S
O34          C41   1.279       .  A
O34        Cu266   2.012       .  S
O35          C40   1.277       .  A
O35         Cu38   2.007       .  S
O36         C267   1.276       .  A
O36         Cu38   2.004       .  S
Cu37        O260   2.008   1_554  S
Cu37      Cu1178   2.374   1_455  S
Cu38        O262   2.012       .  S
Cu38      Cu1177   2.374       .  S
C39         O941   1.277       .  A
C39         O264   1.276       .  A
C39         C217   1.464       .  S
C40        O1170   1.278       .  A
C40        C1120   1.470       .  S
C41         O943   1.277       .  A
C41         C121   1.485       .  S
C42         O944   1.278       .  A
C42         C109   1.479       .  S
O43         C965   1.278       .  A
O43         Cu51   2.014       .  S
O44         C966   1.278       .  A
O44         Cu51   2.015       .  S
O45         C967   1.277       .  A
O45         Cu51   2.000       .  S
O46         C968   1.279       .  A
O46         Cu51   2.011       .  S
O47          C56   1.276       .  A
O47         Cu52   1.997       .  S
O48          C55   1.279       .  A
O48         Cu52   2.010       .  S
O49          C54   1.277       .  A
O49         Cu52   2.005       .  S
O50          C53   1.276       .  A
O50         Cu52   2.002       .  S
Cu51       Cu964   2.373   1_455  S
Cu52       Cu963   2.373       .  S
C53         O955   1.278       .  A
C53        C1072   1.472       .  S
C54         O956   1.278       .  A
C54         C172   1.473       .  S
C55         O957   1.277       .  A
C55         C124   1.485       .  S
C56         O958   1.279       .  A
C56         C112   1.479       .  S
O57         C523   1.277       .  A
O57         Cu65   2.004       .  S
O58         C752   1.277       .  A
O58         Cu65   2.005       .  S
O59         C525   1.278       .  A
O59         Cu65   2.005       .  S
O60         C526   1.279       .  A
O60        Cu293   2.013   1_554  S
O61          C70   1.276       .  A
O61         Cu66   1.991   1_554  S
O62          C69   1.278       .  A
O62        Cu294   2.011       .  S
O63          C68   1.278       .  A
O63         Cu66   2.010       .  S
O64         C295   1.278       .  A
O64         Cu66   2.013       .  S
Cu65        O288   2.013       .  S
Cu65       Cu750   2.373   1_545  S
Cu66        O290   2.011       .  S
Cu66       Cu749   2.373       .  S
C67         O513   1.277       .  A
C67         O292   1.278       .  A
C67         C184   1.471       .  S
C68         O742   1.277       .  A
C68         C193   1.474       .  S
C69         O515   1.278       .  A
C69          C85   1.484       .  S
C70         O516   1.279       .  A
C70          C97   1.480       .  S
O71         C537   1.278   1_545  A
O71         Cu79   2.009       .  S
O72         C538   1.278   1_545  A
O72         Cu79   2.010       .  S
O73         C539   1.278   1_545  A
O73         Cu79   2.003       .  S
O74         C540   1.277   1_545  A
O74         Cu79   2.001       .  S
O75          C84   1.278       .  A
O75         Cu80   2.007       .  S
O76          C83   1.278       .  A
O76         Cu80   2.010       .  S
O77          C82   1.278       .  A
O77         Cu80   2.009       .  S
O78          C81   1.277       .  A
O78         Cu80   2.006       .  S
Cu79       Cu536   2.371   1_545  S
Cu80       Cu535   2.371       .  S
C81         O527   1.278       .  A
C81         C145   1.473       .  S
C82         O528   1.278       .  A
C82         C136   1.477       .  S
C83         O529   1.278       .  A
C83          C88   1.484       .  S
C84         O530   1.277       .  A
C84         C100   1.480       .  S
C85          C86   1.406       .  A
C85         C546   1.411       .  A
C86          C87   1.401       .  A
C86          H91   1.083       .  S
C87          C88   1.412       .  A
C87          O92   1.372       .  S
C88         C545   1.405       .  A
C89          C90   1.398       .  A
C89         C544   1.405   1_545  A
C89          H93   1.083       .  S
C90         C541   1.411   1_545  A
C90          O94   1.372       .  S
O92          H96   0.992       .  S
O94          H95   0.992       .  S
C97          C98   1.405       .  A
C97         C558   1.410       .  A
C98          C99   1.396       .  A
C98         H103   1.084       .  S
C99         C100   1.410       .  A
C99         O104   1.372       .  S
C100        C557   1.406       .  A
C101        C102   1.399       .  A
C101        C556   1.406       .  A
C101        H105   1.083       .  S
C102        C553   1.410       .  A
C102        O106   1.372       .  S
O104        H108   0.992       .  S
O106        H107   0.992       .  S
C109        C110   1.404       .  A
C109       C1026   1.410       .  A
C110        C111   1.399       .  A
C110        H115   1.084       .  S
C111        C112   1.411       .  A
C111        O116   1.372       .  S
C112       C1025   1.404       .  A
C113        C114   1.398       .  A
C113       C1024   1.404       .  A
C113        H117   1.084       .  S
C114       C1021   1.410       .  A
C114        O118   1.372       .  S
O116        H120   0.992       .  S
O118        H119   0.992       .  S
C121        C126   1.411       .  A
C121       C1034   1.406       .  A
C122        C123   1.399       .  A
C122       C1033   1.406       .  A
C122        H127   1.083       .  S
C123       C1036   1.413       .  A
C123        O128   1.372       .  S
C124        C125   1.405       .  A
C124       C1035   1.413       .  A
C125        C126   1.398       .  A
C125        H129   1.083       .  S
C126        O130   1.371       .  S
O128        H132   0.992       .  S
O130        H131   0.992       .  S
C133        C138   1.408       .  A
C133        C590   1.402       .  A
C134        C135   1.401       .  A
C134        C589   1.402   1_545  A
C134        H139   1.084       .  S
C135        C592   1.410   1_545  A
C135        O140   1.372       .  S
C136        C137   1.404       .  A
C136        C591   1.410       .  A
C137        C138   1.400       .  A
C137        H141   1.084       .  S
C138        O142   1.372       .  S
O140        H144   0.992       .  S
O142        H143   0.992       .  S
C145        C150   1.408       .  A
C145        C602   1.403       .  A
C146        C147   1.400       .  A
C146        C601   1.403   1_545  A
C146        H151   1.084       .  S
C147        C604   1.409   1_545  A
C147        O152   1.372       .  S
C148        C484   1.475       .  S
C148        C149   1.403       .  A
C148        C603   1.409       .  A
C149        C150   1.400       .  A
C149        H153   1.084       .  S
C150        O154   1.372       .  S
O152        H156   0.992       .  S
O154        H155   0.992       .  S
C157        C162   1.409   1_655  A
C157       C1070   1.403       .  A
C158        C159   1.400       .  A
C158       C1069   1.403       .  A
C158        H163   1.084       .  S
C159       C1072   1.408       .  A
C159        O164   1.372       .  S
C160        C965   1.472       .  S
C160        C161   1.402       .  A
C160       C1071   1.408   1_455  A
C161        C162   1.400       .  A
C161        H165   1.084       .  S
C162        O166   1.372       .  S
O164        H168   0.992       .  S
O166        H167   0.992       .  S
C169        C170   1.404       .  A
C169       C1086   1.411       .  A
C170        C171   1.400       .  A
C170        H175   1.084       .  S
C171        C172   1.407       .  A
C171        O176   1.372       .  S
C172       C1085   1.402       .  A
C173        C174   1.402       .  A
C173       C1084   1.402       .  A
C173        H177   1.084       .  S
C174       C1081   1.411       .  A
C174        O178   1.372       .  S
O176        H180   0.992       .  S
O178        H179   0.992       .  S
C181        C240   1.478       .  S
C181        C410   1.406       .  A
C181        C642   1.410       .  A
C182        C183   1.401       .  A
C182        C409   1.406       .  A
C182        H187   1.084       .  S
C183        C412   1.407   1_554  A
C183        O188   1.372       .  S
C184        C411   1.407       .  A
C184        C641   1.401       .  A
C185        C186   1.399       .  A
C185        C640   1.401       .  A
C185        H189   1.084       .  S
C186        C637   1.410       .  A
C186        O190   1.372       .  S
O188        H192   0.992       .  S
O190        H191   0.992       .  S
C193        C194   1.403   1_556  A
C193        C882   1.408       .  A
C194        C195   1.400       .  A
C194        H199   1.084       .  S
C195        C652   1.408       .  A
C195        O200   1.372       .  S
C196        C651   1.408   1_545  A
C196        C425   1.403   1_554  A
C197        C198   1.400       .  A
C197        C424   1.403       .  A
C197        H201   1.084       .  S
C198        C877   1.408       .  A
C198        O202   1.372       .  S
O200        H204   0.992       .  S
O202        H203   0.992       .  S
C205        C242   1.481       .  S
C205        C434   1.406       .  A
C205       C1122   1.412   1_455  A
C206        C207   1.400       .  A
C206        C433   1.406   1_554  A
C206        H211   1.084       .  S
C207        C436   1.405       .  A
C207        O212   1.372       .  S
C208        C952   1.470       .  S
C208        C435   1.405       .  A
C208       C1121   1.402   1_455  A
C209        C210   1.401       .  A
C209       C1120   1.402       .  A
C209        H213   1.084       .  S
C210       C1117   1.412       .  A
C210        O214   1.372       .  S
O212        H216   0.992       .  S
O214        H215   0.991       .  S
C217        C446   1.398   1_554  A
C217       C1134   1.404       .  A
C218        C219   1.398       .  A
C218        C445   1.398       .  A
C218        H223   1.084       .  S
C219        C448   1.414       .  A
C219        O224   1.372       .  S
C220        C447   1.414   1_554  A
C220       C1133   1.407       .  A
C221        C222   1.400       .  A
C221       C1132   1.407   1_455  A
C221        H225   1.083       .  S
C222       C1129   1.404       .  A
C222        O226   1.372       .  S
O224        H228   0.992       .  S
O226        H227   0.992       .  S
O229        C239   1.278       .  A
O229      Cu1149   2.013       .  S
O230        C696   1.278       .  A
O230       Cu237   2.008   1_455  S
O231       C1153   1.279       .  A
O231       Cu237   2.016       .  S
O232       C1154   1.278       .  A
O232      Cu1605   2.006       .  S
O233        C926   1.278       .  A
O233       Cu238   2.012       .  S
O234        C925   1.276   1_556  A
O234      Cu1606   1.998       .  S
O235      Cu1150   2.008   1_455  S
O236        C467   1.277   1_556  A
O236       Cu238   2.006       .  S
Cu237      O1141   2.013       .  S
Cu237      O1600   2.006   1_645  S
Cu237     Cu1378   2.372       .  S
Cu238      O1602   1.998       .  S
Cu238      O1147   2.008       .  S
Cu238     Cu1377   2.372   1_556  S
C239        O464   1.277       .  A
C239        C424   1.474       .  S
C240        O686   1.278       .  A
C241       O1143   1.279       .  A
C241        O918   1.276       .  A
C241        C448   1.482       .  S
C242       O1144   1.278       .  A
C242        O917   1.278   1_455  A
O243        C253   1.278       .  A
O243       Cu707   2.011       .  S
O244       C1166   1.279       .  A
O244       Cu251   2.014   1_545  S
O245        C711   1.276       .  A
O245       Cu251   1.996   1_455  S
O246        C712   1.278       .  A
O246      Cu1619   2.011       .  S
O247        C712   1.278       .  A
O247       Cu252   2.010       .  S
O248        C711   1.279       .  A
O248      Cu1620   2.018   1_455  S
O249        C254   1.278       .  A
O249       Cu708   2.008   1_545  S
O250       C1165   1.277       .  A
O250       Cu252   2.005       .  S
Cu251       O699   2.011       .  S
Cu251      O1614   2.011       .  S
Cu251     Cu1620   2.374       .  S
Cu252      O1616   2.018       .  S
Cu252       O705   2.008       .  S
Cu252     Cu1619   2.374       .  S
C253       O1162   1.277       .  A
C253        C385   1.474       .  S
C254       O1156   1.279       .  A
C254        C397   1.479       .  S
C255        O701   1.276       .  A
C255        O704   1.279       .  A
C255        C361   1.472       .  S
C256        O702   1.278       .  A
C256        O703   1.278       .  A
C256        C832   1.475       .  S
O257       C1179   1.277       .  A
O257       Cu265   2.006       .  S
O258        C952   1.278       .  A
O258       Cu265   2.012       .  S
O259       C1181   1.277       .  A
O259       Cu265   1.998       .  S
O260       C1182   1.278       .  A
O261        C270   1.277       .  A
O261       Cu266   2.000   1_556  S
O262        C269   1.279       .  A
O263        C268   1.277       .  A
O263       Cu266   2.007       .  S
O264       Cu266   2.004       .  S
Cu265      Cu950   2.374   1_455  S
Cu266      Cu949   2.374       .  S
C267       O1169   1.277       .  A
C267        C445   1.464       .  S
C268        O942   1.278       .  A
C268       C1348   1.470       .  S
C269       O1171   1.277       .  A
C269        C349   1.485       .  S
C270       O1172   1.278       .  A
C270        C337   1.479       .  S
O271       C1193   1.278       .  A
O271       Cu279   2.014       .  S
O272       C1194   1.278       .  A
O272       Cu279   2.015       .  S
O273       C1195   1.277       .  A
O273       Cu279   2.000       .  S
O274       C1196   1.279       .  A
O274       Cu279   2.011       .  S
O275        C284   1.276       .  A
O275       Cu280   1.997       .  S
O276        C283   1.279       .  A
O276       Cu280   2.010       .  S
O277        C282   1.277       .  A
O277       Cu280   2.005       .  S
O278        C281   1.276       .  A
O278       Cu280   2.002       .  S
Cu279     Cu1192   2.373   1_455  S
Cu280     Cu1191   2.373       .  S
C281       O1183   1.278       .  A
C281       C1300   1.472       .  S
C282       O1184   1.278       .  A
C282        C400   1.473       .  S
C283       O1185   1.277       .  A
C283        C352   1.485       .  S
C284       O1186   1.279       .  A
C284        C340   1.479       .  S
O285        C751   1.277       .  A
O285       Cu293   2.004       .  S
O286        C524   1.277       .  A
O286       Cu293   2.005       .  S
O287        C753   1.278       .  A
O287       Cu293   2.005       .  S
O288        C754   1.279       .  A
O289        C298   1.276       .  A
O289       Cu294   1.991       .  S
O290        C297   1.278       .  A
O291        C296   1.278       .  A
O291       Cu294   2.010       .  S
O292       Cu294   2.013       .  S
Cu293      Cu522   2.373   1_545  S
Cu294      Cu521   2.373       .  S
C295        O741   1.277       .  A
C295        C412   1.471       .  S
C296        O514   1.277       .  A
C296        C421   1.474       .  S
C297        O743   1.278       .  A
C297        C313   1.484       .  S
C298        O744   1.279       .  A
C298        C325   1.480       .  S
O299        C765   1.278   1_545  A
O299       Cu307   2.009       .  S
O300        C766   1.278   1_545  A
O300       Cu307   2.010       .  S
O301        C767   1.278   1_545  A
O301       Cu307   2.003       .  S
O302        C768   1.277   1_545  A
O302       Cu307   2.001       .  S
O303        C312   1.278       .  A
O303       Cu308   2.007       .  S
O304        C311   1.278       .  A
O304       Cu308   2.010       .  S
O305        C310   1.278       .  A
O305       Cu308   2.009       .  S
O306        C309   1.277       .  A
O306       Cu308   2.006       .  S
Cu307      Cu764   2.371   1_545  S
Cu308      Cu763   2.371       .  S
C309        O755   1.278       .  A
C309        C373   1.473       .  S
C310        O756   1.278       .  A
C310        C364   1.477       .  S
C311        O757   1.278       .  A
C311        C316   1.484       .  S
C312        O758   1.277       .  A
C312        C328   1.481       .  S
C313        C314   1.406       .  A
C313        C774   1.411       .  A
C314        C315   1.401       .  A
C314        H319   1.083       .  S
C315        C316   1.412       .  A
C315        O320   1.372       .  S
C316        C773   1.405       .  A
C317        C772   1.405   1_545  A
C317        C318   1.398       .  A
C317        H321   1.083       .  S
C318        C769   1.411   1_545  A
C318        O322   1.372       .  S
O320        H324   0.992       .  S
O322        H323   0.992       .  S
C325        C326   1.405       .  A
C325        C786   1.410       .  A
C326        C327   1.396       .  A
C326        H331   1.084       .  S
C327        C328   1.410       .  A
C327        O332   1.372       .  S
C328        C785   1.406       .  A
C329        C784   1.406       .  A
C329        C330   1.399       .  A
C329        H333   1.083       .  S
C330        C781   1.410       .  A
C330        O334   1.372       .  S
O332        H336   0.992       .  S
O334        H335   0.992       .  S
C337        C338   1.404       .  A
C337       C1254   1.410       .  A
C338        C339   1.399       .  A
C338        H343   1.084       .  S
C339        C340   1.411       .  A
C339        O344   1.372       .  S
C340       C1253   1.404       .  A
C341       C1252   1.404       .  A
C341        C342   1.398       .  A
C341        H345   1.084       .  S
C342       C1249   1.410       .  A
C342        O346   1.372       .  S
O344        H348   0.992       .  S
O346        H347   0.992       .  S
C349       C1262   1.406       .  A
C349        C354   1.411       .  A
C350       C1261   1.406       .  A
C350        C351   1.399       .  A
C350        H355   1.083       .  S
C351       C1264   1.413       .  A
C351        O356   1.372       .  S
C352       C1263   1.413       .  A
C352        C353   1.405       .  A
C353        C354   1.398       .  A
C353        H357   1.083       .  S
C354        O358   1.371       .  S
O356        H360   0.992       .  S
O358        H359   0.992       .  S
C361        C818   1.402       .  A
C361        C366   1.408       .  A
C362        C817   1.402   1_545  A
C362        C363   1.401       .  A
C362        H367   1.084       .  S
C363        C820   1.410   1_545  A
C363        O368   1.372       .  S
C364        C819   1.410       .  A
C364        C365   1.404       .  A
C365        C366   1.400       .  A
C365        H369   1.084       .  S
C366        O370   1.372       .  S
O368        H372   0.992       .  S
O370        H371   0.992       .  S
C373        C830   1.403       .  A
C373        C378   1.408       .  A
C374        C829   1.403   1_545  A
C374        C375   1.400       .  A
C374        H379   1.084       .  S
C375        C832   1.409   1_545  A
C375        O380   1.372       .  S
C376        C712   1.475       .  S
C376        C831   1.409       .  A
C376        C377   1.403       .  A
C377        C378   1.400       .  A
C377        H381   1.084       .  S
C378        O382   1.372       .  S
O380        H384   0.992       .  S
O382        H383   0.992       .  S
C385       C1298   1.403       .  A
C385        C390   1.409   1_655  A
C386       C1297   1.403       .  A
C386        C387   1.400       .  A
C386        H391   1.084       .  S
C387       C1300   1.408       .  A
C387        O392   1.372       .  S
C388       C1193   1.472       .  S
C388       C1299   1.408   1_455  A
C388        C389   1.402       .  A
C389        C390   1.400       .  A
C389        H393   1.084       .  S
C390        O394   1.372       .  S
O392        H396   0.992       .  S
O394        H395   0.992       .  S
C397        C398   1.404       .  A
C397       C1314   1.411       .  A
C398        C399   1.400       .  A
C398        H403   1.084       .  S
C399        C400   1.407       .  A
C399        O404   1.372       .  S
C400       C1313   1.402       .  A
C401       C1312   1.402       .  A
C401        C402   1.402       .  A
C401        H405   1.084       .  S
C402       C1309   1.411       .  A
C402        O406   1.372       .  S
O404        H408   0.992       .  S
O406        H407   0.992       .  S
C409        C870   1.410   1_554  A
C410        C411   1.401       .  A
C410        H415   1.084       .  S
C411        O416   1.372       .  S
C412        C869   1.401       .  A
C413        C868   1.401       .  A
C413        C414   1.399       .  A
C413        H417   1.084       .  S
C414        C865   1.410   1_556  A
C414        O418   1.372       .  S
O416        H420   0.992       .  S
O418        H419   0.992       .  S
C421        C422   1.403       .  A
C421        C654   1.408       .  A
C422        C423   1.400       .  A
C422        H427   1.084       .  S
C423        C880   1.408       .  A
C423        O428   1.372       .  S
C424        C879   1.408   1_545  A
C425        C426   1.400       .  A
C425        H429   1.084       .  S
C426        C649   1.408       .  A
C426        O430   1.372       .  S
O428        H432   0.992       .  S
O430        H431   0.992       .  S
C433       C1350   1.412   1_455  A
C434        C435   1.400       .  A
C434        H439   1.084       .  S
C435        O440   1.372       .  S
C436       C1180   1.470       .  S
C436       C1349   1.402   1_454  A
C437       C1348   1.402   1_556  A
C437        C438   1.401       .  A
C437        H441   1.084       .  S
C438       C1345   1.412       .  A
C438        O442   1.372       .  S
O440        H444   0.992       .  S
O442        H443   0.991       .  S
C445       C1362   1.404       .  A
C446        C447   1.398       .  A
C446        H451   1.084       .  S
C447        O452   1.372       .  S
C448       C1361   1.407       .  A
C449       C1360   1.407   1_455  A
C449        C450   1.400       .  A
C449        H453   1.083       .  S
C450       C1357   1.404       .  A
C450        O454   1.372       .  S
O452        H456   0.992       .  S
O454        H455   0.992       .  S
O457        C467   1.278       .  A
O457      Cu1377   2.013       .  S
O458       Cu465   2.008   1_455  S
O459       C1381   1.279       .  A
O459       Cu465   2.016       .  S
O460       C1382   1.278   1_554  A
O460       Cu921   2.006   1_565  S
O461       C1610   1.278       .  A
O461       Cu466   2.012   1_565  S
O462       C1609   1.276       .  A
O462       Cu922   1.998       .  S
O463        C696   1.278       .  A
O463      Cu1378   2.008   1_455  S
O464       Cu466   2.006       .  S
Cu465      O1369   2.013       .  S
Cu465       O916   2.006   1_655  S
Cu465     Cu1150   2.372   1_554  S
Cu466       O918   1.998       .  S
Cu466      O1375   2.008       .  S
Cu466     Cu1149   2.372       .  S
C467        C652   1.474       .  S
C468        O691   1.278   1_554  A
C468        C865   1.478       .  S
C469       O1371   1.279       .  A
C469       O1602   1.276   1_554  A
C469        C676   1.482       .  S
C470       O1372   1.278   1_556  A
C470       O1601   1.278   1_455  A
C470        C889   1.481       .  S
O471        C481   1.278       .  A
O472       C1394   1.279       .  A
O472       Cu479   2.014       .  S
O473       Cu479   1.996   1_455  S
O474       Cu935   2.011       .  S
O475       Cu480   2.010       .  S
O476       Cu936   2.018   1_455  S
O477        C482   1.278       .  A
O478       C1393   1.277       .  A
O478       Cu480   2.005       .  S
Cu479       O930   2.011       .  S
Cu479      Cu936   2.374       .  S
Cu480       O932   2.018       .  S
Cu480      Cu935   2.374       .  S
C481       O1390   1.277       .  A
C481        C613   1.474       .  S
C482       O1384   1.279       .  A
C482        C625   1.480       .  S
C483        C589   1.472       .  S
O485       C1407   1.277       .  A
O485       Cu493   2.006       .  S
O486       C1636   1.278       .  A
O486       Cu493   2.012       .  S
O487       C1409   1.277       .  A
O487       Cu493   1.998       .  S
O488       C1410   1.278       .  A
O488       Cu721   2.008       .  S
O489        C498   1.277       .  A
O489       Cu494   2.000       .  S
O490        C497   1.279       .  A
O490       Cu722   2.012       .  S
O491        C496   1.277       .  A
O491       Cu494   2.007       .  S
O492        C723   1.276       .  A
O492       Cu494   2.004       .  S
Cu493       O716   2.008   1_554  S
Cu493     Cu1634   2.374   1_455  S
Cu494       O718   2.012       .  S
Cu494     Cu1633   2.374       .  S
C495       O1397   1.277       .  A
C495        O720   1.276       .  A
C495        C673   1.464       .  S
C496       O1626   1.278       .  A
C496       C1576   1.470       .  S
C497       O1399   1.277       .  A
C497        C577   1.485       .  S
C498       O1400   1.278       .  A
C498        C565   1.479       .  S
O499       C1421   1.278       .  A
O499       Cu507   2.014       .  S
O500       C1422   1.278       .  A
O500       Cu507   2.015       .  S
O501       C1423   1.277       .  A
O501       Cu507   2.000       .  S
O502       C1424   1.279       .  A
O502       Cu507   2.011       .  S
O503        C512   1.276       .  A
O503       Cu508   1.997       .  S
O504        C511   1.279       .  A
O504       Cu508   2.010       .  S
O505        C510   1.277       .  A
O505       Cu508   2.005       .  S
O506        C509   1.276       .  A
O506       Cu508   2.002       .  S
Cu507     Cu1420   2.373   1_455  S
Cu508     Cu1419   2.373       .  S
C509       O1411   1.278       .  A
C509       C1528   1.472       .  S
C510       O1412   1.278       .  A
C510        C628   1.473       .  S
C511       O1413   1.277       .  A
C511        C580   1.485       .  S
C512       O1414   1.279       .  A
C512        C568   1.478       .  S
O513       Cu521   2.004       .  S
O514       Cu521   2.005       .  S
O515       Cu521   2.005       .  S
O516       Cu749   2.013   1_554  S
O517        C526   1.276   1_565  A
O517       Cu522   1.991   1_554  S
O518        C525   1.278   1_565  A
O518       Cu750   2.011       .  S
O519        C524   1.278   1_565  A
O519       Cu522   2.010       .  S
O520        C751   1.278   1_565  A
O520       Cu522   2.013       .  S
Cu521       O744   2.013       .  S
Cu522       O746   2.011       .  S
C523        O748   1.278   1_545  A
C523        C640   1.470       .  S
C524        C649   1.474       .  S
C525        C541   1.484   1_545  S
C526        C553   1.480       .  S
O527       Cu535   2.009       .  S
O528       Cu535   2.010       .  S
O529       Cu535   2.003       .  S
O530       Cu535   2.001       .  S
O531        C540   1.278       .  A
O531       Cu536   2.007       .  S
O532        C539   1.278       .  A
O532       Cu536   2.010       .  S
O533        C538   1.278       .  A
O533       Cu536   2.009       .  S
O534        C537   1.277       .  A
O534       Cu536   2.006       .  S
C537        C601   1.473       .  S
C538        C592   1.477       .  S
C539        C544   1.484       .  S
C540        C556   1.481   1_565  S
C541        C542   1.406       .  A
C542        C543   1.401       .  A
C542        H547   1.083       .  S
C543        C544   1.412       .  A
C543        O548   1.372       .  S
C545        C546   1.398       .  A
C545        H549   1.083       .  S
C546        O550   1.372       .  S
O548        H552   0.992       .  S
O550        H551   0.992       .  S
C553        C554   1.405   1_545  A
C554        C555   1.396       .  A
C554        H559   1.084       .  S
C555        C556   1.410   1_565  A
C555        O560   1.372       .  S
C557        C558   1.399       .  A
C557        H561   1.083       .  S
C558        O562   1.372       .  S
O560        H564   0.992       .  S
O562        H563   0.992       .  S
C565        C566   1.404       .  A
C565       C1482   1.410       .  A
C566        C567   1.399       .  A
C566        H571   1.084       .  S
C567        C568   1.411       .  A
C567        O572   1.372       .  S
C568       C1481   1.404       .  A
C569       C1480   1.404       .  A
C569        C570   1.398       .  A
C569        H573   1.084       .  S
C570       C1477   1.410       .  A
C570        O574   1.372       .  S
O572        H576   0.992       .  S
O574        H575   0.992       .  S
C577       C1490   1.406       .  A
C577        C582   1.411       .  A
C578       C1489   1.406       .  A
C578        C579   1.399       .  A
C578        H583   1.083       .  S
C579       C1492   1.413       .  A
C579        O584   1.372       .  S
C580       C1491   1.413       .  A
C580        C581   1.405       .  A
C581        C582   1.398       .  A
C581        H585   1.083       .  S
C582        O586   1.371       .  S
O584        H588   0.992       .  S
O586        H587   0.992       .  S
C589        C594   1.408       .  A
C590        C591   1.401       .  A
C590        H595   1.084       .  S
C591        O596   1.372       .  S
C592        C593   1.404       .  A
C593        C594   1.400       .  A
C593        H597   1.084       .  S
C594        O598   1.372       .  S
O596        H600   0.992       .  S
O598        H599   0.992       .  S
C601        C606   1.408       .  A
C602        C603   1.400       .  A
C602        H607   1.084       .  S
C603        O608   1.372       .  S
C604        C605   1.403       .  A
C605        C606   1.400       .  A
C605        H609   1.084       .  S
C606        O610   1.372       .  S
O608        H612   0.992       .  S
O610        H611   0.992       .  S
C613       C1526   1.403       .  A
C613        C618   1.409   1_655  A
C614       C1525   1.403       .  A
C614        C615   1.400       .  A
C614        H619   1.084       .  S
C615       C1528   1.408       .  A
C615        O620   1.372       .  S
C616       C1421   1.472       .  S
C616       C1527   1.408   1_455  A
C616        C617   1.402       .  A
C617        C618   1.400       .  A
C617        H621   1.084       .  S
C618        O622   1.372       .  S
O620        H624   0.992       .  S
O622        H623   0.992       .  S
C625        C626   1.404       .  A
C625       C1542   1.411       .  A
C626        C627   1.400       .  A
C626        H631   1.084       .  S
C627        C628   1.407       .  A
C627        O632   1.372       .  S
C628       C1541   1.402       .  A
C629       C1540   1.402       .  A
C629        C630   1.402       .  A
C629        H633   1.084       .  S
C630       C1537   1.411       .  A
C630        O634   1.372       .  S
O632        H636   0.992       .  S
O634        H635   0.992       .  S
C637        C696   1.478       .  S
C637        C866   1.406   1_545  A
C638        C865   1.406   1_565  A
C638        C639   1.401       .  A
C638        H643   1.084       .  S
C639        C868   1.407   1_564  A
C639        O644   1.372       .  S
C640        C867   1.407   1_545  A
C641        C642   1.399       .  A
C641        H645   1.084       .  S
C642        O646   1.372       .  S
O644        H648   0.992       .  S
O646        H647   0.992       .  S
C649        C650   1.403   1_546  A
C650        C651   1.400       .  A
C650        H655   1.084       .  S
C651        O656   1.372       .  S
C652        C881   1.403   1_554  A
C653        C880   1.403       .  A
C653        C654   1.400       .  A
C653        H657   1.084       .  S
C654        O658   1.372       .  S
O656        H660   0.992       .  S
O658        H659   0.992       .  S
C661        C698   1.481       .  S
C661        C890   1.406       .  A
C661       C1578   1.412   1_455  A
C662        C889   1.406   1_554  A
C662        C663   1.400       .  A
C662        H667   1.084       .  S
C663        C892   1.405       .  A
C663        O668   1.372       .  S
C664       C1408   1.470       .  S
C664        C891   1.405       .  A
C664       C1577   1.402   1_455  A
C665       C1576   1.402       .  A
C665        C666   1.401       .  A
C665        H669   1.084       .  S
C666       C1573   1.412       .  A
C666        O670   1.372       .  S
O668        H672   0.992       .  S
O670        H671   0.991       .  S
C673        C902   1.398   1_554  A
C673       C1590   1.404       .  A
C674        C901   1.398       .  A
C674        C675   1.398       .  A
C674        H679   1.084       .  S
C675        C904   1.414       .  A
C675        O680   1.372       .  S
C676        C903   1.414   1_554  A
C676       C1589   1.407       .  A
C677       C1588   1.407   1_455  A
C677        C678   1.400       .  A
C677        H681   1.083       .  S
C678       C1585   1.404       .  A
C678        O682   1.372       .  S
O680        H684   0.992       .  S
O682        H683   0.992       .  S
O685        C695   1.278       .  A
O685      Cu1605   2.013       .  S
O686       Cu693   2.008   1_455  S
O687       C1609   1.279       .  A
O687       Cu693   2.016       .  S
O688       C1610   1.278       .  A
O688      Cu1149   2.006   1_565  S
O689       C1382   1.278       .  A
O689       Cu694   2.012   1_565  S
O690       C1381   1.276   1_556  A
O690      Cu1150   1.998       .  S
O691      Cu1606   2.008   1_455  S
O692       Cu694   2.006       .  S
Cu693      O1597   2.013       .  S
Cu693      O1144   2.006   1_655  S
Cu693      Cu922   2.372       .  S
Cu694      O1146   1.998       .  S
Cu694      O1603   2.008       .  S
Cu694      Cu921   2.372   1_556  S
C695        C880   1.474       .  S
C697       O1599   1.279       .  A
C697       O1374   1.276       .  A
C697        C904   1.482       .  S
C698       O1600   1.278       .  A
C698       O1373   1.278   1_455  A
O699        C709   1.278       .  A
O700       C1622   1.279       .  A
O700       Cu707   2.014       .  S
O701       Cu707   1.996   1_455  S
O702      Cu1163   2.011       .  S
O703       Cu708   2.010       .  S
O704      Cu1164   2.018   1_455  S
O705        C710   1.278       .  A
O706       C1621   1.277       .  A
O706       Cu708   2.005       .  S
Cu707      O1158   2.011       .  S
Cu707     Cu1164   2.374       .  S
Cu708      O1160   2.018       .  S
Cu708     Cu1163   2.374       .  S
C709       O1618   1.277       .  A
C709        C841   1.474       .  S
C710       O1612   1.279       .  A
C710        C853   1.480       .  S
C711        C817   1.472       .  S
O713       C1635   1.277       .  A
O713       Cu721   2.006       .  S
O714       C1408   1.278       .  A
O714       Cu721   2.012       .  S
O715       C1637   1.277       .  A
O715       Cu721   1.998       .  S
O716       C1638   1.278       .  A
O717        C726   1.277       .  A
O717       Cu722   2.000   1_556  S
O718        C725   1.279       .  A
O719        C724   1.277       .  A
O719       Cu722   2.007       .  S
O720       Cu722   2.004       .  S
Cu721     Cu1406   2.374   1_455  S
Cu722     Cu1405   2.374       .  S
C723       O1625   1.277       .  A
C723        C901   1.464       .  S
C724       O1398   1.278       .  A
C724       C1804   1.470       .  S
C725       O1627   1.277       .  A
C725        C805   1.485       .  S
C726       O1628   1.278       .  A
C726        C793   1.479       .  S
O727       C1649   1.278       .  A
O727       Cu735   2.014       .  S
O728       C1650   1.278       .  A
O728       Cu735   2.015       .  S
O729       C1651   1.277       .  A
O729       Cu735   2.000       .  S
O730       C1652   1.279       .  A
O730       Cu735   2.011       .  S
O731        C740   1.276       .  A
O731       Cu736   1.997       .  S
O732        C739   1.279       .  A
O732       Cu736   2.010       .  S
O733        C738   1.277       .  A
O733       Cu736   2.005       .  S
O734        C737   1.276       .  A
O734       Cu736   2.002       .  S
Cu735     Cu1648   2.373   1_455  S
Cu736     Cu1647   2.373       .  S
C737       O1639   1.278       .  A
C737       C1756   1.472       .  S
C738       O1640   1.278       .  A
C738        C856   1.473       .  S
C739       O1641   1.277       .  A
C739        C808   1.485       .  S
C740       O1642   1.279       .  A
C740        C796   1.478       .  S
O741       Cu749   2.004       .  S
O742       Cu749   2.005       .  S
O743       Cu749   2.005       .  S
O745        C754   1.276   1_565  A
O745       Cu750   1.991       .  S
O746        C753   1.278   1_565  A
O747        C752   1.278   1_565  A
O747       Cu750   2.010       .  S
O748       Cu750   2.013       .  S
C751        C868   1.470       .  S
C752        C877   1.474       .  S
C753        C769   1.484   1_545  S
C754        C781   1.480       .  S
O755       Cu763   2.009       .  S
O756       Cu763   2.010       .  S
O757       Cu763   2.003       .  S
O758       Cu763   2.001       .  S
O759        C768   1.278       .  A
O759       Cu764   2.007       .  S
O760        C767   1.278       .  A
O760       Cu764   2.010       .  S
O761        C766   1.278       .  A
O761       Cu764   2.009       .  S
O762        C765   1.277       .  A
O762       Cu764   2.006       .  S
C765        C829   1.473       .  S
C766        C820   1.477       .  S
C767        C772   1.484       .  S
C768        C784   1.481   1_565  S
C769        C770   1.406       .  A
C770        C771   1.401       .  A
C770        H775   1.083       .  S
C771        C772   1.412       .  A
C771        O776   1.372       .  S
C773        C774   1.398       .  A
C773        H777   1.083       .  S
C774        O778   1.372       .  S
O776        H780   0.992       .  S
O778        H779   0.992       .  S
C781        C782   1.405   1_545  A
C782        C783   1.396       .  A
C782        H787   1.084       .  S
C783        C784   1.410   1_565  A
C783        O788   1.372       .  S
C785        C786   1.399       .  A
C785        H789   1.083       .  S
C786        O790   1.372       .  S
O788        H792   0.992       .  S
O790        H791   0.992       .  S
C793        C794   1.404       .  A
C793       C1710   1.410       .  A
C794        C795   1.399       .  A
C794        H799   1.084       .  S
C795        C796   1.411       .  A
C795        O800   1.372       .  S
C796       C1709   1.404       .  A
C797       C1708   1.404       .  A
C797        C798   1.398       .  A
C797        H801   1.084       .  S
C798       C1705   1.410       .  A
C798        O802   1.372       .  S
O800        H804   0.992       .  S
O802        H803   0.992       .  S
C805       C1718   1.406       .  A
C805        C810   1.411       .  A
C806       C1717   1.406       .  A
C806        C807   1.399       .  A
C806        H811   1.083       .  S
C807       C1720   1.413       .  A
C807        O812   1.372       .  S
C808       C1719   1.413       .  A
C808        C809   1.405       .  A
C809        C810   1.398       .  A
C809        H813   1.083       .  S
C810        O814   1.371       .  S
O812        H816   0.992       .  S
O814        H815   0.992       .  S
C817        C822   1.408       .  A
C818        C819   1.401       .  A
C818        H823   1.084       .  S
C819        O824   1.372       .  S
C820        C821   1.404       .  A
C821        C822   1.400       .  A
C821        H825   1.084       .  S
C822        O826   1.372       .  S
O824        H828   0.992       .  S
O826        H827   0.992       .  S
C829        C834   1.408       .  A
C830        C831   1.400       .  A
C830        H835   1.084       .  S
C831        O836   1.372       .  S
C832        C833   1.403       .  A
C833        C834   1.400       .  A
C833        H837   1.084       .  S
C834        O838   1.372       .  S
O836        H840   0.992       .  S
O838        H839   0.992       .  S
C841       C1754   1.403       .  A
C841        C846   1.409   1_655  A
C842       C1753   1.403       .  A
C842        C843   1.400       .  A
C842        H847   1.084       .  S
C843       C1756   1.408       .  A
C843        O848   1.372       .  S
C844       C1649   1.472       .  S
C844       C1755   1.408   1_455  A
C844        C845   1.402       .  A
C845        C846   1.400       .  A
C845        H849   1.084       .  S
C846        O850   1.372       .  S
O848        H852   0.992       .  S
O850        H851   0.992       .  S
C853        C854   1.404       .  A
C853       C1770   1.411       .  A
C854        C855   1.400       .  A
C854        H859   1.084       .  S
C855        C856   1.407       .  A
C855        O860   1.372       .  S
C856       C1769   1.402       .  A
C857       C1768   1.402       .  A
C857        C858   1.402       .  A
C857        H861   1.084       .  S
C858       C1765   1.411       .  A
C858        O862   1.372       .  S
O860        H864   0.992       .  S
O862        H863   0.992       .  S
C866        C867   1.401       .  A
C866        H871   1.084       .  S
C867        O872   1.372       .  S
C869        C870   1.399       .  A
C869        H873   1.084       .  S
C870        O874   1.372       .  S
O872        H876   0.992       .  S
O874        H875   0.992       .  S
C877        C878   1.403   1_545  A
C878        C879   1.400       .  A
C878        H883   1.084       .  S
C879        O884   1.372       .  S
C881        C882   1.400       .  A
C881        H885   1.084       .  S
C882        O886   1.372       .  S
O884        H888   0.992       .  S
O886        H887   0.992       .  S
C889       C1806   1.412   1_455  A
C890        C891   1.400       .  A
C890        H895   1.084       .  S
C891        O896   1.372       .  S
C892       C1636   1.470       .  S
C892       C1805   1.402   1_454  A
C893       C1804   1.402   1_556  A
C893        C894   1.401       .  A
C893        H897   1.084       .  S
C894       C1801   1.412       .  A
C894        O898   1.372       .  S
O896        H900   0.992       .  S
O898        H899   0.991       .  S
C901       C1818   1.404       .  A
C902        C903   1.398       .  A
C902        H907   1.084       .  S
C903        O908   1.372       .  S
C904       C1817   1.407       .  A
C905       C1816   1.407   1_455  A
C905        C906   1.400       .  A
C905        H909   1.083       .  S
C906       C1813   1.404       .  A
C906        O910   1.372       .  S
O908        H912   0.992       .  S
O910        H911   0.992       .  S
O913        C923   1.278       .  A
O914       C1380   1.278       .  A
O914       Cu921   2.008       .  S
O915       Cu921   2.016       .  S
O917       Cu922   2.012       .  S
O919       C1152   1.278       .  A
O920       C1607   1.277       .  A
O920       Cu922   2.006       .  S
C923       O1604   1.277   1_554  A
C923       C1108   1.474       .  S
C924       O1370   1.278       .  A
C924       O1147   1.278   1_554  A
C924       C1321   1.478       .  S
C925       C1132   1.482       .  S
C926       C1345   1.481       .  S
O927        C937   1.278       .  A
O927      Cu1391   2.011       .  S
O928       Cu935   2.014   1_545  S
O929       C1395   1.276       .  A
O929       Cu935   1.996       .  S
O930       C1396   1.278       .  A
O931       C1396   1.278       .  A
O931       Cu936   2.010       .  S
O932       C1395   1.279       .  A
O933        C938   1.278       .  A
O933      Cu1392   2.008   1_545  S
O934       Cu936   2.005       .  S
Cu935      O1383   2.011       .  S
Cu936      O1389   2.008       .  S
C937       C1069   1.474       .  S
C938       C1081   1.480   1_655  S
C939       O1385   1.276       .  A
C939       O1388   1.279       .  A
C939       C1045   1.472       .  S
C940       O1386   1.278       .  A
C940       O1387   1.278       .  A
C940       C1516   1.475       .  S
O941       Cu949   2.006       .  S
O942       Cu949   2.012       .  S
O943       Cu949   1.998       .  S
O944      Cu1177   2.008       .  S
O945        C954   1.277   1_655  A
O945       Cu950   2.000       .  S
O946        C953   1.279   1_655  A
O946      Cu1178   2.012       .  S
O947        C952   1.277   1_655  A
O947       Cu950   2.007       .  S
O948       C1179   1.276   1_655  A
O948       Cu950   2.004       .  S
Cu949      O1172   2.008   1_554  S
Cu950      O1174   2.012       .  S
C951       O1176   1.276   1_455  A
C951       C1129   1.464       .  S
C953       C1033   1.485       .  S
C954       C1021   1.479       .  S
O955       Cu963   2.014       .  S
O956       Cu963   2.015       .  S
O957       Cu963   2.000       .  S
O958       Cu963   2.011       .  S
O959        C968   1.276   1_655  A
O959       Cu964   1.997       .  S
O960        C967   1.279   1_655  A
O960       Cu964   2.010       .  S
O961        C966   1.277   1_655  A
O961       Cu964   2.005       .  S
O962        C965   1.276   1_655  A
O962       Cu964   2.002       .  S
C966       C1084   1.473       .  S
C967       C1036   1.485       .  S
C968       C1024   1.479       .  S
O969       C1435   1.277       .  A
O969       Cu977   2.004       .  S
O970       C1664   1.277       .  A
O970       Cu977   2.005       .  S
O971       C1437   1.278       .  A
O971       Cu977   2.005       .  S
O972       C1438   1.279       .  A
O972      Cu1205   2.013   1_554  S
O973        C982   1.276       .  A
O973       Cu978   1.991   1_554  S
O974        C981   1.278       .  A
O974      Cu1206   2.011       .  S
O975        C980   1.278       .  A
O975       Cu978   2.010       .  S
O976       C1207   1.278       .  A
O976       Cu978   2.013       .  S
Cu977      O1200   2.013       .  S
Cu977     Cu1662   2.373   1_545  S
Cu978      O1202   2.011       .  S
Cu978     Cu1661   2.373       .  S
C979       O1425   1.277       .  A
C979       O1204   1.278       .  A
C979       C1096   1.471       .  S
C980       O1654   1.277       .  A
C980       C1105   1.474       .  S
C981       O1427   1.278       .  A
C981        C997   1.484       .  S
C982       O1428   1.279       .  A
C982       C1009   1.480       .  S
O983       C1449   1.278   1_545  A
O983       Cu991   2.009       .  S
O984       C1450   1.278   1_545  A
O984       Cu991   2.010       .  S
O985       C1451   1.278   1_545  A
O985       Cu991   2.003       .  S
O986       C1452   1.277   1_545  A
O986       Cu991   2.001       .  S
O987        C996   1.278       .  A
O987       Cu992   2.007       .  S
O988        C995   1.278       .  A
O988       Cu992   2.010       .  S
O989        C994   1.278       .  A
O989       Cu992   2.009       .  S
O990        C993   1.277       .  A
O990       Cu992   2.006       .  S
Cu991     Cu1448   2.371   1_545  S
Cu992     Cu1447   2.371       .  S
C993       O1439   1.278       .  A
C993       C1057   1.473       .  S
C994       O1440   1.278       .  A
C994       C1048   1.477       .  S
C995       O1441   1.278       .  A
C995       C1000   1.484       .  S
C996       O1442   1.277       .  A
C996       C1012   1.480       .  S
C997        C998   1.406       .  A
C997       C1458   1.411       .  A
C998        C999   1.401       .  A
C998       H1003   1.083       .  S
C999       C1000   1.412       .  A
C999       O1004   1.372       .  S
C1000      C1457   1.405       .  A
C1001      C1456   1.405   1_545  A
C1001      C1002   1.398       .  A
C1001      H1005   1.083       .  S
C1002      C1453   1.411   1_545  A
C1002      O1006   1.372       .  S
O1004      H1008   0.992       .  S
O1006      H1007   0.992       .  S
C1009      C1010   1.405       .  A
C1009      C1470   1.410       .  A
C1010      C1011   1.396       .  A
C1010      H1015   1.084       .  S
C1011      C1012   1.410       .  A
C1011      O1016   1.372       .  S
C1012      C1469   1.406       .  A
C1013      C1468   1.406       .  A
C1013      C1014   1.400       .  A
C1013      H1017   1.083       .  S
C1014      C1465   1.410       .  A
C1014      O1018   1.372       .  S
O1016      H1020   0.992       .  S
O1018      H1019   0.992       .  S
C1021      C1022   1.404   1_455  A
C1022      C1023   1.399       .  A
C1022      H1027   1.084       .  S
C1023      C1024   1.411   1_655  A
C1023      O1028   1.372       .  S
C1025      C1026   1.398       .  A
C1025      H1029   1.084       .  S
C1026      O1030   1.372       .  S
O1028      H1032   0.992       .  S
O1030      H1031   0.992       .  S
C1033      C1038   1.411   1_455  A
C1034      C1035   1.399       .  A
C1034      H1039   1.083       .  S
C1035      O1040   1.372       .  S
C1036      C1037   1.405   1_455  A
C1037      C1038   1.398       .  A
C1037      H1041   1.083       .  S
C1038      O1042   1.371       .  S
O1040      H1044   0.992       .  S
O1042      H1043   0.992       .  S
C1045      C1502   1.402       .  A
C1045      C1050   1.408       .  A
C1046      C1501   1.402   1_545  A
C1046      C1047   1.401       .  A
C1046      H1051   1.084       .  S
C1047      C1504   1.410   1_545  A
C1047      O1052   1.372       .  S
C1048      C1503   1.410       .  A
C1048      C1049   1.404       .  A
C1049      C1050   1.400       .  A
C1049      H1053   1.084       .  S
C1050      O1054   1.372       .  S
O1052      H1056   0.992       .  S
O1054      H1055   0.992       .  S
C1057      C1514   1.403       .  A
C1057      C1062   1.408       .  A
C1058      C1513   1.403   1_545  A
C1058      C1059   1.400       .  A
C1058      H1063   1.084       .  S
C1059      C1516   1.409   1_545  A
C1059      O1064   1.372       .  S
C1060      C1396   1.475       .  S
C1060      C1515   1.409       .  A
C1060      C1061   1.403       .  A
C1061      C1062   1.400       .  A
C1061      H1065   1.084       .  S
C1062      O1066   1.372       .  S
O1064      H1068   0.992       .  S
O1066      H1067   0.992       .  S
C1069      C1074   1.409       .  A
C1070      C1071   1.400       .  A
C1070      H1075   1.084       .  S
C1071      O1076   1.372       .  S
C1072      C1073   1.402       .  A
C1073      C1074   1.400       .  A
C1073      H1077   1.084       .  S
C1074      O1078   1.372       .  S
O1076      H1080   0.992       .  S
O1078      H1079   0.992       .  S
C1081      C1082   1.404   1_455  A
C1082      C1083   1.400       .  A
C1082      H1087   1.084       .  S
C1083      C1084   1.407   1_655  A
C1083      O1088   1.372       .  S
C1085      C1086   1.402       .  A
C1085      H1089   1.084       .  S
C1086      O1090   1.372       .  S
O1088      H1092   0.992       .  S
O1090      H1091   0.992       .  S
C1093      C1152   1.478       .  S
C1093      C1322   1.406       .  A
C1093      C1554   1.410       .  A
C1094      C1321   1.406       .  A
C1094      C1095   1.401       .  A
C1094      H1099   1.084       .  S
C1095      C1324   1.407   1_554  A
C1095      O1100   1.372       .  S
C1096      C1323   1.407       .  A
C1096      C1553   1.401       .  A
C1097      C1552   1.401       .  A
C1097      C1098   1.399       .  A
C1097      H1101   1.084       .  S
C1098      C1549   1.410       .  A
C1098      O1102   1.372       .  S
O1100      H1104   0.992       .  S
O1102      H1103   0.992       .  S
C1105      C1106   1.403   1_556  A
C1105      C1794   1.408       .  A
C1106      C1107   1.400       .  A
C1106      H1111   1.084       .  S
C1107      C1564   1.408       .  A
C1107      O1112   1.372       .  S
C1108      C1563   1.408   1_545  A
C1108      C1337   1.403   1_554  A
C1109      C1336   1.403       .  A
C1109      C1110   1.400       .  A
C1109      H1113   1.084       .  S
C1110      C1789   1.408       .  A
C1110      O1114   1.372       .  S
O1112      H1116   0.992       .  S
O1114      H1115   0.992       .  S
C1117      C1154   1.481       .  S
C1117      C1346   1.406       .  A
C1118      C1345   1.406   1_554  A
C1118      C1119   1.400       .  A
C1118      H1123   1.084       .  S
C1119      C1348   1.405       .  A
C1119      O1124   1.372       .  S
C1120      C1347   1.405       .  A
C1121      C1122   1.401       .  A
C1121      H1125   1.084       .  S
C1122      O1126   1.372       .  S
O1124      H1128   0.992       .  S
O1126      H1127   0.991       .  S
C1129      C1358   1.398   1_454  A
C1130      C1357   1.398   1_655  A
C1130      C1131   1.398       .  A
C1130      H1135   1.084       .  S
C1131      C1360   1.414       .  A
C1131      O1136   1.372       .  S
C1132      C1359   1.414   1_554  A
C1133      C1134   1.400       .  A
C1133      H1137   1.083       .  S
C1134      O1138   1.372       .  S
O1136      H1140   0.992       .  S
O1138      H1139   0.992       .  S
O1141      C1151   1.278       .  A
O1142      C1608   1.278       .  A
O1142     Cu1149   2.008       .  S
O1143     Cu1149   2.016       .  S
O1145     Cu1150   2.012       .  S
O1148      C1379   1.277   1_556  A
O1148     Cu1150   2.006       .  S
C1151      O1376   1.277       .  A
C1151      C1336   1.474       .  S
C1152      O1598   1.278       .  A
C1153      C1360   1.482       .  S
O1155      C1165   1.278       .  A
O1155     Cu1619   2.011       .  S
O1156     Cu1163   2.014   1_545  S
O1157      C1623   1.276       .  A
O1157     Cu1163   1.996       .  S
O1158      C1624   1.278       .  A
O1159      C1624   1.278       .  A
O1159     Cu1164   2.010       .  S
O1160      C1623   1.279       .  A
O1161      C1166   1.278       .  A
O1161     Cu1620   2.008   1_545  S
O1162     Cu1164   2.005       .  S
Cu1163     O1611   2.011       .  S
Cu1164     O1617   2.008       .  S
C1165      C1297   1.474       .  S
C1166      C1309   1.480   1_655  S
C1167      O1613   1.276       .  A
C1167      O1616   1.279       .  A
C1167      C1273   1.472       .  S
C1168      O1614   1.278       .  A
C1168      O1615   1.278       .  A
C1168      C1744   1.475       .  S
O1169     Cu1177   2.006       .  S
O1170     Cu1177   2.012       .  S
O1171     Cu1177   1.998       .  S
O1173      C1182   1.277   1_655  A
O1173     Cu1178   2.000   1_556  S
O1174      C1181   1.279   1_655  A
O1175      C1180   1.277   1_655  A
O1175     Cu1178   2.007       .  S
O1176     Cu1178   2.004       .  S
C1179      C1357   1.464       .  S
C1181      C1261   1.485       .  S
C1182      C1249   1.479       .  S
O1183     Cu1191   2.014       .  S
O1184     Cu1191   2.015       .  S
O1185     Cu1191   2.000       .  S
O1186     Cu1191   2.011       .  S
O1187      C1196   1.276   1_655  A
O1187     Cu1192   1.997       .  S
O1188      C1195   1.279   1_655  A
O1188     Cu1192   2.010       .  S
O1189      C1194   1.277   1_655  A
O1189     Cu1192   2.005       .  S
O1190      C1193   1.276   1_655  A
O1190     Cu1192   2.002       .  S
C1194      C1312   1.473       .  S
C1195      C1264   1.485       .  S
C1196      C1252   1.479       .  S
O1197      C1663   1.277       .  A
O1197     Cu1205   2.004       .  S
O1198      C1436   1.277       .  A
O1198     Cu1205   2.005       .  S
O1199      C1665   1.278       .  A
O1199     Cu1205   2.005       .  S
O1200      C1666   1.279       .  A
O1201      C1210   1.276       .  A
O1201     Cu1206   1.991       .  S
O1202      C1209   1.278       .  A
O1203      C1208   1.278       .  A
O1203     Cu1206   2.010       .  S
O1204     Cu1206   2.013       .  S
Cu1205    Cu1434   2.373   1_545  S
Cu1206    Cu1433   2.373       .  S
C1207      O1653   1.277       .  A
C1207      C1324   1.471       .  S
C1208      O1426   1.277       .  A
C1208      C1333   1.474       .  S
C1209      O1655   1.278       .  A
C1209      C1225   1.484       .  S
C1210      O1656   1.279       .  A
C1210      C1237   1.480       .  S
O1211      C1677   1.278   1_545  A
O1211     Cu1219   2.009       .  S
O1212      C1678   1.278   1_545  A
O1212     Cu1219   2.010       .  S
O1213      C1679   1.278   1_545  A
O1213     Cu1219   2.003       .  S
O1214      C1680   1.277   1_545  A
O1214     Cu1219   2.001       .  S
O1215      C1224   1.278       .  A
O1215     Cu1220   2.007       .  S
O1216      C1223   1.278       .  A
O1216     Cu1220   2.010       .  S
O1217      C1222   1.278       .  A
O1217     Cu1220   2.009       .  S
O1218      C1221   1.277       .  A
O1218     Cu1220   2.006       .  S
Cu1219    Cu1676   2.371   1_545  S
Cu1220    Cu1675   2.371       .  S
C1221      O1667   1.278       .  A
C1221      C1285   1.473       .  S
C1222      O1668   1.278       .  A
C1222      C1276   1.477       .  S
C1223      O1669   1.278       .  A
C1223      C1228   1.484       .  S
C1224      O1670   1.277       .  A
C1224      C1240   1.481       .  S
C1225      C1226   1.406       .  A
C1225      C1686   1.411       .  A
C1226      C1227   1.401       .  A
C1226      H1231   1.083       .  S
C1227      C1228   1.412       .  A
C1227      O1232   1.372       .  S
C1228      C1685   1.405       .  A
C1229      C1684   1.405   1_545  A
C1229      C1230   1.398       .  A
C1229      H1233   1.083       .  S
C1230      C1681   1.411   1_545  A
C1230      O1234   1.372       .  S
O1232      H1236   0.992       .  S
O1234      H1235   0.992       .  S
C1237      C1238   1.405       .  A
C1237      C1698   1.410       .  A
C1238      C1239   1.396       .  A
C1238      H1243   1.084       .  S
C1239      C1240   1.410       .  A
C1239      O1244   1.372       .  S
C1240      C1697   1.406       .  A
C1241      C1696   1.406       .  A
C1241      C1242   1.400       .  A
C1241      H1245   1.083       .  S
C1242      C1693   1.410       .  A
C1242      O1246   1.372       .  S
O1244      H1248   0.992       .  S
O1246      H1247   0.992       .  S
C1249      C1250   1.404   1_455  A
C1250      C1251   1.399       .  A
C1250      H1255   1.084       .  S
C1251      C1252   1.411   1_655  A
C1251      O1256   1.372       .  S
C1253      C1254   1.398       .  A
C1253      H1257   1.084       .  S
C1254      O1258   1.372       .  S
O1256      H1260   0.992       .  S
O1258      H1259   0.992       .  S
C1261      C1266   1.411   1_455  A
C1262      C1263   1.399       .  A
C1262      H1267   1.083       .  S
C1263      O1268   1.372       .  S
C1264      C1265   1.405   1_455  A
C1265      C1266   1.398       .  A
C1265      H1269   1.083       .  S
C1266      O1270   1.371       .  S
O1268      H1272   0.992       .  S
O1270      H1271   0.992       .  S
C1273      C1730   1.402       .  A
C1273      C1278   1.408       .  A
C1274      C1729   1.402   1_545  A
C1274      C1275   1.401       .  A
C1274      H1279   1.084       .  S
C1275      C1732   1.410   1_545  A
C1275      O1280   1.372       .  S
C1276      C1731   1.410       .  A
C1276      C1277   1.404       .  A
C1277      C1278   1.400       .  A
C1277      H1281   1.084       .  S
C1278      O1282   1.372       .  S
O1280      H1284   0.992       .  S
O1282      H1283   0.992       .  S
C1285      C1742   1.403       .  A
C1285      C1290   1.408       .  A
C1286      C1741   1.403   1_545  A
C1286      C1287   1.400       .  A
C1286      H1291   1.084       .  S
C1287      C1744   1.409   1_545  A
C1287      O1292   1.372       .  S
C1288      C1624   1.475       .  S
C1288      C1743   1.409       .  A
C1288      C1289   1.403       .  A
C1289      C1290   1.400       .  A
C1289      H1293   1.084       .  S
C1290      O1294   1.372       .  S
O1292      H1296   0.992       .  S
O1294      H1295   0.992       .  S
C1297      C1302   1.409       .  A
C1298      C1299   1.400       .  A
C1298      H1303   1.084       .  S
C1299      O1304   1.372       .  S
C1300      C1301   1.402       .  A
C1301      C1302   1.400       .  A
C1301      H1305   1.084       .  S
C1302      O1306   1.372       .  S
O1304      H1308   0.992       .  S
O1306      H1307   0.992       .  S
C1309      C1310   1.404   1_455  A
C1310      C1311   1.400       .  A
C1310      H1315   1.084       .  S
C1311      C1312   1.407   1_655  A
C1311      O1316   1.372       .  S
C1313      C1314   1.402       .  A
C1313      H1317   1.084       .  S
C1314      O1318   1.372       .  S
O1316      H1320   0.992       .  S
O1318      H1319   0.992       .  S
C1321      C1782   1.410   1_554  A
C1322      C1323   1.401       .  A
C1322      H1327   1.084       .  S
C1323      O1328   1.372       .  S
C1324      C1781   1.401       .  A
C1325      C1780   1.401       .  A
C1325      C1326   1.399       .  A
C1325      H1329   1.084       .  S
C1326      C1777   1.410   1_556  A
C1326      O1330   1.372       .  S
O1328      H1332   0.992       .  S
O1330      H1331   0.992       .  S
C1333      C1334   1.403       .  A
C1333      C1566   1.408       .  A
C1334      C1335   1.400       .  A
C1334      H1339   1.084       .  S
C1335      C1792   1.408       .  A
C1335      O1340   1.372       .  S
C1336      C1791   1.408   1_545  A
C1337      C1338   1.400       .  A
C1337      H1341   1.084       .  S
C1338      C1561   1.408       .  A
C1338      O1342   1.372       .  S
O1340      H1344   0.992       .  S
O1342      H1343   0.992       .  S
C1346      C1347   1.400       .  A
C1346      H1351   1.084       .  S
C1347      O1352   1.372       .  S
C1349      C1350   1.401       .  A
C1349      H1353   1.084       .  S
C1350      O1354   1.372       .  S
O1352      H1356   0.992       .  S
O1354      H1355   0.991       .  S
C1358      C1359   1.398       .  A
C1358      H1363   1.084       .  S
C1359      O1364   1.372       .  S
C1361      C1362   1.400       .  A
C1361      H1365   1.083       .  S
C1362      O1366   1.372       .  S
O1364      H1368   0.992       .  S
O1366      H1367   0.992       .  S
O1369      C1379   1.278       .  A
O1370     Cu1377   2.008       .  S
O1371     Cu1377   2.016       .  S
O1373     Cu1378   2.012   1_565  S
O1375      C1608   1.278       .  A
O1376     Cu1378   2.006       .  S
C1379      C1564   1.474       .  S
C1380      O1603   1.278   1_554  A
C1380      C1777   1.478       .  S
C1381      C1588   1.482       .  S
C1382      C1801   1.481       .  S
O1383      C1393   1.278       .  A
O1384     Cu1391   2.014       .  S
O1385     Cu1391   1.996       .  S
O1387     Cu1392   2.010       .  S
O1389      C1394   1.278       .  A
O1390     Cu1392   2.005       .  S
C1393      C1525   1.474       .  S
C1394      C1537   1.480   1_655  S
C1395      C1501   1.472       .  S
O1397     Cu1405   2.006       .  S
O1398     Cu1405   2.012       .  S
O1399     Cu1405   1.998       .  S
O1400     Cu1633   2.008       .  S
O1401      C1410   1.277   1_655  A
O1401     Cu1406   2.000       .  S
O1402      C1409   1.279   1_655  A
O1402     Cu1634   2.012       .  S
O1403      C1408   1.277   1_655  A
O1403     Cu1406   2.007       .  S
O1404      C1635   1.276   1_655  A
O1404     Cu1406   2.004       .  S
Cu1405     O1628   2.008   1_554  S
Cu1406     O1630   2.012       .  S
C1407      O1632   1.276   1_455  A
C1407      C1585   1.464       .  S
C1409      C1489   1.485       .  S
C1410      C1477   1.479       .  S
O1411     Cu1419   2.014       .  S
O1412     Cu1419   2.015       .  S
O1413     Cu1419   2.000       .  S
O1414     Cu1419   2.011       .  S
O1415      C1424   1.276   1_655  A
O1415     Cu1420   1.997       .  S
O1416      C1423   1.279   1_655  A
O1416     Cu1420   2.010       .  S
O1417      C1422   1.277   1_655  A
O1417     Cu1420   2.005       .  S
O1418      C1421   1.276   1_655  A
O1418     Cu1420   2.002       .  S
C1422      C1540   1.473       .  S
C1423      C1492   1.485       .  S
C1424      C1480   1.478       .  S
O1425     Cu1433   2.004       .  S
O1426     Cu1433   2.005       .  S
O1427     Cu1433   2.005       .  S
O1428     Cu1661   2.013   1_554  S
O1429      C1438   1.276   1_565  A
O1429     Cu1434   1.991   1_554  S
O1430      C1437   1.278   1_565  A
O1430     Cu1662   2.011       .  S
O1431      C1436   1.278   1_565  A
O1431     Cu1434   2.010       .  S
O1432      C1663   1.278   1_565  A
O1432     Cu1434   2.013       .  S
Cu1433     O1656   2.013       .  S
Cu1434     O1658   2.011       .  S
C1435      O1660   1.278   1_545  A
C1435      C1552   1.470       .  S
C1436      C1561   1.474       .  S
C1437      C1453   1.484   1_545  S
C1438      C1465   1.480       .  S
O1439     Cu1447   2.009       .  S
O1440     Cu1447   2.010       .  S
O1441     Cu1447   2.003       .  S
O1442     Cu1447   2.001       .  S
O1443      C1452   1.278       .  A
O1443     Cu1448   2.007       .  S
O1444      C1451   1.278       .  A
O1444     Cu1448   2.010       .  S
O1445      C1450   1.278       .  A
O1445     Cu1448   2.009       .  S
O1446      C1449   1.277       .  A
O1446     Cu1448   2.006       .  S
C1449      C1513   1.473       .  S
C1450      C1504   1.477       .  S
C1451      C1456   1.484       .  S
C1452      C1468   1.481   1_565  S
C1453      C1454   1.406       .  A
C1454      C1455   1.401       .  A
C1454      H1459   1.083       .  S
C1455      C1456   1.412       .  A
C1455      O1460   1.372       .  S
C1457      C1458   1.398       .  A
C1457      H1461   1.083       .  S
C1458      O1462   1.372       .  S
O1460      H1464   0.992       .  S
O1462      H1463   0.992       .  S
C1465      C1466   1.405   1_545  A
C1466      C1467   1.396       .  A
C1466      H1471   1.084       .  S
C1467      C1468   1.410   1_565  A
C1467      O1472   1.372       .  S
C1469      C1470   1.399       .  A
C1469      H1473   1.083       .  S
C1470      O1474   1.372       .  S
O1472      H1476   0.992       .  S
O1474      H1475   0.992       .  S
C1477      C1478   1.404   1_455  A
C1478      C1479   1.399       .  A
C1478      H1483   1.084       .  S
C1479      C1480   1.411   1_655  A
C1479      O1484   1.372       .  S
C1481      C1482   1.398       .  A
C1481      H1485   1.084       .  S
C1482      O1486   1.372       .  S
O1484      H1488   0.992       .  S
O1486      H1487   0.992       .  S
C1489      C1494   1.411   1_455  A
C1490      C1491   1.399       .  A
C1490      H1495   1.083       .  S
C1491      O1496   1.372       .  S
C1492      C1493   1.405   1_455  A
C1493      C1494   1.398       .  A
C1493      H1497   1.083       .  S
C1494      O1498   1.371       .  S
O1496      H1500   0.992       .  S
O1498      H1499   0.992       .  S
C1501      C1506   1.408       .  A
C1502      C1503   1.401       .  A
C1502      H1507   1.084       .  S
C1503      O1508   1.372       .  S
C1504      C1505   1.404       .  A
C1505      C1506   1.400       .  A
C1505      H1509   1.084       .  S
C1506      O1510   1.372       .  S
O1508      H1512   0.992       .  S
O1510      H1511   0.992       .  S
C1513      C1518   1.408       .  A
C1514      C1515   1.400       .  A
C1514      H1519   1.084       .  S
C1515      O1520   1.372       .  S
C1516      C1517   1.403       .  A
C1517      C1518   1.400       .  A
C1517      H1521   1.084       .  S
C1518      O1522   1.372       .  S
O1520      H1524   0.992       .  S
O1522      H1523   0.992       .  S
C1525      C1530   1.409       .  A
C1526      C1527   1.400       .  A
C1526      H1531   1.084       .  S
C1527      O1532   1.372       .  S
C1528      C1529   1.402       .  A
C1529      C1530   1.400       .  A
C1529      H1533   1.084       .  S
C1530      O1534   1.372       .  S
O1532      H1536   0.992       .  S
O1534      H1535   0.992       .  S
C1537      C1538   1.404   1_455  A
C1538      C1539   1.400       .  A
C1538      H1543   1.084       .  S
C1539      C1540   1.407   1_655  A
C1539      O1544   1.372       .  S
C1541      C1542   1.402       .  A
C1541      H1545   1.084       .  S
C1542      O1546   1.372       .  S
O1544      H1548   0.992       .  S
O1546      H1547   0.992       .  S
C1549      C1608   1.478       .  S
C1549      C1778   1.406   1_545  A
C1550      C1777   1.406   1_565  A
C1550      C1551   1.401       .  A
C1550      H1555   1.084       .  S
C1551      C1780   1.407   1_564  A
C1551      O1556   1.372       .  S
C1552      C1779   1.407   1_545  A
C1553      C1554   1.399       .  A
C1553      H1557   1.084       .  S
C1554      O1558   1.372       .  S
O1556      H1560   0.992       .  S
O1558      H1559   0.992       .  S
C1561      C1562   1.403   1_546  A
C1562      C1563   1.400       .  A
C1562      H1567   1.084       .  S
C1563      O1568   1.372       .  S
C1564      C1793   1.403   1_554  A
C1565      C1792   1.403       .  A
C1565      C1566   1.400       .  A
C1565      H1569   1.084       .  S
C1566      O1570   1.372       .  S
O1568      H1572   0.992       .  S
O1570      H1571   0.992       .  S
C1573      C1610   1.481       .  S
C1573      C1802   1.406       .  A
C1574      C1801   1.406   1_554  A
C1574      C1575   1.400       .  A
C1574      H1579   1.084       .  S
C1575      C1804   1.405       .  A
C1575      O1580   1.372       .  S
C1576      C1803   1.405       .  A
C1577      C1578   1.401       .  A
C1577      H1581   1.084       .  S
C1578      O1582   1.372       .  S
O1580      H1584   0.992       .  S
O1582      H1583   0.991       .  S
C1585      C1814   1.398   1_454  A
C1586      C1813   1.398   1_655  A
C1586      C1587   1.398       .  A
C1586      H1591   1.084       .  S
C1587      C1816   1.414       .  A
C1587      O1592   1.372       .  S
C1588      C1815   1.414   1_554  A
C1589      C1590   1.400       .  A
C1589      H1593   1.083       .  S
C1590      O1594   1.372       .  S
O1592      H1596   0.992       .  S
O1594      H1595   0.992       .  S
O1597      C1607   1.278       .  A
O1598     Cu1605   2.008       .  S
O1599     Cu1605   2.016       .  S
O1601     Cu1606   2.012   1_565  S
O1604     Cu1606   2.006       .  S
C1607      C1792   1.474       .  S
C1609      C1816   1.482       .  S
O1611      C1621   1.278       .  A
O1612     Cu1619   2.014       .  S
O1613     Cu1619   1.996       .  S
O1615     Cu1620   2.010       .  S
O1617      C1622   1.278       .  A
O1618     Cu1620   2.005       .  S
C1621      C1753   1.474       .  S
C1622      C1765   1.480   1_655  S
C1623      C1729   1.472       .  S
O1625     Cu1633   2.006       .  S
O1626     Cu1633   2.012       .  S
O1627     Cu1633   1.998       .  S
O1629      C1638   1.277   1_655  A
O1629     Cu1634   2.000   1_556  S
O1630      C1637   1.279   1_655  A
O1631      C1636   1.277   1_655  A
O1631     Cu1634   2.007       .  S
O1632     Cu1634   2.004       .  S
C1635      C1813   1.464       .  S
C1637      C1717   1.485       .  S
C1638      C1705   1.479       .  S
O1639     Cu1647   2.014       .  S
O1640     Cu1647   2.015       .  S
O1641     Cu1647   2.000       .  S
O1642     Cu1647   2.011       .  S
O1643      C1652   1.276   1_655  A
O1643     Cu1648   1.997       .  S
O1644      C1651   1.279   1_655  A
O1644     Cu1648   2.010       .  S
O1645      C1650   1.277   1_655  A
O1645     Cu1648   2.005       .  S
O1646      C1649   1.276   1_655  A
O1646     Cu1648   2.002       .  S
C1650      C1768   1.473       .  S
C1651      C1720   1.485       .  S
C1652      C1708   1.478       .  S
O1653     Cu1661   2.004       .  S
O1654     Cu1661   2.005       .  S
O1655     Cu1661   2.005       .  S
O1657      C1666   1.276   1_565  A
O1657     Cu1662   1.991       .  S
O1658      C1665   1.278   1_565  A
O1659      C1664   1.278   1_565  A
O1659     Cu1662   2.010       .  S
O1660     Cu1662   2.013       .  S
C1663      C1780   1.470       .  S
C1664      C1789   1.474       .  S
C1665      C1681   1.484   1_545  S
C1666      C1693   1.480       .  S
O1667     Cu1675   2.009       .  S
O1668     Cu1675   2.010       .  S
O1669     Cu1675   2.003       .  S
O1670     Cu1675   2.001       .  S
O1671      C1680   1.278       .  A
O1671     Cu1676   2.007       .  S
O1672      C1679   1.278       .  A
O1672     Cu1676   2.010       .  S
O1673      C1678   1.278       .  A
O1673     Cu1676   2.009       .  S
O1674      C1677   1.277       .  A
O1674     Cu1676   2.006       .  S
C1677      C1741   1.473       .  S
C1678      C1732   1.477       .  S
C1679      C1684   1.484       .  S
C1680      C1696   1.481   1_565  S
C1681      C1682   1.406       .  A
C1682      C1683   1.401       .  A
C1682      H1687   1.083       .  S
C1683      C1684   1.412       .  A
C1683      O1688   1.372       .  S
C1685      C1686   1.398       .  A
C1685      H1689   1.083       .  S
C1686      O1690   1.372       .  S
O1688      H1692   0.992       .  S
O1690      H1691   0.992       .  S
C1693      C1694   1.405   1_545  A
C1694      C1695   1.396       .  A
C1694      H1699   1.084       .  S
C1695      C1696   1.410   1_565  A
C1695      O1700   1.372       .  S
C1697      C1698   1.399       .  A
C1697      H1701   1.083       .  S
C1698      O1702   1.372       .  S
O1700      H1704   0.992       .  S
O1702      H1703   0.992       .  S
C1705      C1706   1.404   1_455  A
C1706      C1707   1.399       .  A
C1706      H1711   1.084       .  S
C1707      C1708   1.411   1_655  A
C1707      O1712   1.372       .  S
C1709      C1710   1.398       .  A
C1709      H1713   1.084       .  S
C1710      O1714   1.372       .  S
O1712      H1716   0.992       .  S
O1714      H1715   0.992       .  S
C1717      C1722   1.411   1_455  A
C1718      C1719   1.399       .  A
C1718      H1723   1.083       .  S
C1719      O1724   1.372       .  S
C1720      C1721   1.405   1_455  A
C1721      C1722   1.398       .  A
C1721      H1725   1.083       .  S
C1722      O1726   1.371       .  S
O1724      H1728   0.992       .  S
O1726      H1727   0.992       .  S
C1729      C1734   1.408       .  A
C1730      C1731   1.401       .  A
C1730      H1735   1.084       .  S
C1731      O1736   1.372       .  S
C1732      C1733   1.404       .  A
C1733      C1734   1.400       .  A
C1733      H1737   1.084       .  S
C1734      O1738   1.372       .  S
O1736      H1740   0.992       .  S
O1738      H1739   0.992       .  S
C1741      C1746   1.408       .  A
C1742      C1743   1.400       .  A
C1742      H1747   1.084       .  S
C1743      O1748   1.372       .  S
C1744      C1745   1.403       .  A
C1745      C1746   1.400       .  A
C1745      H1749   1.084       .  S
C1746      O1750   1.372       .  S
O1748      H1752   0.992       .  S
O1750      H1751   0.992       .  S
C1753      C1758   1.409       .  A
C1754      C1755   1.400       .  A
C1754      H1759   1.084       .  S
C1755      O1760   1.372       .  S
C1756      C1757   1.402       .  A
C1757      C1758   1.400       .  A
C1757      H1761   1.084       .  S
C1758      O1762   1.372       .  S
O1760      H1764   0.992       .  S
O1762      H1763   0.992       .  S
C1765      C1766   1.404   1_455  A
C1766      C1767   1.400       .  A
C1766      H1771   1.084       .  S
C1767      C1768   1.407   1_655  A
C1767      O1772   1.372       .  S
C1769      C1770   1.402       .  A
C1769      H1773   1.084       .  S
C1770      O1774   1.372       .  S
O1772      H1776   0.992       .  S
O1774      H1775   0.992       .  S
C1778      C1779   1.401       .  A
C1778      H1783   1.084       .  S
C1779      O1784   1.372       .  S
C1781      C1782   1.399       .  A
C1781      H1785   1.084       .  S
C1782      O1786   1.372       .  S
O1784      H1788   0.992       .  S
O1786      H1787   0.992       .  S
C1789      C1790   1.403   1_545  A
C1790      C1791   1.400       .  A
C1790      H1795   1.084       .  S
C1791      O1796   1.372       .  S
C1793      C1794   1.400       .  A
C1793      H1797   1.084       .  S
C1794      O1798   1.372       .  S
O1796      H1800   0.992       .  S
O1798      H1799   0.992       .  S
C1802      C1803   1.400       .  A
C1802      H1807   1.084       .  S
C1803      O1808   1.372       .  S
C1805      C1806   1.401       .  A
C1805      H1809   1.084       .  S
C1806      O1810   1.372       .  S
O1808      H1812   0.992       .  S
O1810      H1811   0.991       .  S
C1814      C1815   1.398       .  A
C1814      H1819   1.084       .  S
C1815      O1820   1.372       .  S
C1817      C1818   1.400       .  A
C1817      H1821   1.083       .  S
C1818      O1822   1.372       .  S
O1820      H1824   0.992       .  S
O1822      H1823   0.992       .  S
