geometry optimzed in LAMMPS
_audit_creation_date              2020-11-30 
_audit_creation_method            'lammps2cif' 
_symmetry_space_group_name_H-M    'P1' 
_symmetry_Int_Tables_number       1 
_symmetry_cell_setting            triclinic 
loop_ 
_symmetry_equiv_pos_as_xyz 
  x,y,z 
_cell_length_a                    35.75612356 
_cell_length_b                    35.74175842084066 
_cell_length_c                    35.86846459927432 
_cell_angle_alpha                 90.09283112518672 
_cell_angle_beta                  89.97277223687645 
_cell_angle_gamma                 89.93687696284245 
loop_ 
_atom_site_label 
_atom_site_type_symbol 
_atom_site_fract_x 
_atom_site_fract_y 
_atom_site_fract_z 
_atom_site_charge 
C1          C  0.64158391  0.13090258  0.88178503     0.80600
N2          N  0.64740121  0.16702199  0.89269438    -0.77700
C3          C  0.65560265  0.19381939  0.86722206     0.83000
N4          N  0.65816299  0.18451567  0.83070342    -0.77700
C5          C  0.65132579  0.14907751  0.81900278     0.83100
N6          N  0.64368205  0.12202510  0.84468337    -0.79400
C7          C  0.80588178  0.13516102  0.70919120     0.80600
N8          N  0.81710257  0.17096546  0.71672577    -0.77700
C9          C  0.79172939  0.19796132  0.72564164     0.83000
N10         N  0.75509782  0.18877170  0.72871005    -0.77700
C11         C  0.74316633  0.15365371  0.72078363     0.83100
N12         N  0.76860466  0.12700150  0.71121170    -0.79400
C13         C  0.81419856  0.29929839  0.88774959     0.80600
N14         N  0.77739347  0.29561162  0.89769001    -0.77700
C15         C  0.75072003  0.28962690  0.87121294     0.83000
N16         N  0.76115963  0.28598963  0.83510634    -0.77700
C17         C  0.79732657  0.28989921  0.82460509     0.83100
N18         N  0.82400133  0.29616653  0.85100869    -0.79400
C19         C  0.64817537  0.29477039  0.88871445     0.80600
N20         N  0.63909994  0.25795078  0.88483059    -0.77700
C21         C  0.66595768  0.23183098  0.87878017     0.83000
N22         N  0.70217951  0.24263911  0.87609133    -0.77700
C23         C  0.71211953  0.27895963  0.88104688     0.83100
N24         N  0.68492091  0.30525398  0.88652035    -0.79400
C25         C  0.81615580  0.29901509  0.72319918     0.80600
N26         N  0.81412961  0.30757995  0.76029070    -0.77700
C27         C  0.80704272  0.28038324  0.78585297     0.83000
N28         N  0.80087941  0.24481171  0.77408671    -0.77700
C29         C  0.80361978  0.23559790  0.73750125     0.83100
N30         N  0.81070345  0.26286641  0.71202906    -0.79400
C31         C  0.64204242  0.12811500  0.71738885     0.80600
N32         N  0.63330180  0.13098863  0.75449831    -0.77700
C33         C  0.66022493  0.13986493  0.77991572     0.83000
N34         N  0.69548138  0.14666982  0.76805311    -0.77700
C35         C  0.70490719  0.14322053  0.73168604     0.83100
N36         N  0.67812312  0.13426498  0.70622344    -0.79400
C37         C  0.14973268  0.29907279  0.88122906     0.80600
N38         N  0.18507949  0.28957054  0.89231904    -0.77700
C39         C  0.21137872  0.27962664  0.86670596     0.83000
N40         N  0.20220495  0.27860930  0.83011430    -0.77700
C41         C  0.16763676  0.28863656  0.81831266     0.83100
N42         N  0.14125699  0.29841544  0.84398541    -0.79400
C43         C  0.14304210  0.13165146  0.70883924     0.80600
N44         N  0.17852371  0.11840879  0.71408479    -0.77700
C45         C  0.20644393  0.14215166  0.72438215     0.83000
N46         N  0.19861604  0.17883543  0.73013118    -0.77700
C47         C  0.16379041  0.19251066  0.72402216     0.83100
N48         N  0.13593831  0.16884941  0.71371932    -0.79400
C49         C  0.31977241  0.11862374  0.87932013     0.80600
N50         N  0.31375327  0.10873971  0.84291403    -0.77700
C51         C  0.30364723  0.13506235  0.81736108     0.83000
N52         N  0.29840777  0.17090905  0.82851782    -0.77700
C53         C  0.30487138  0.18142668  0.86419026     0.83100
N54         N  0.31538213  0.15524389  0.88964433    -0.79400
C55         C  0.31307910  0.28315635  0.88358248     0.80600
N56         N  0.32236890  0.24627992  0.87967133    -0.77700
C57         C  0.29519693  0.21996172  0.87517727     0.83000
N58         N  0.25884789  0.23091890  0.87278757    -0.77700
C59         C  0.24910220  0.26733657  0.87756893     0.83100
N60         N  0.27631052  0.29321345  0.88272316    -0.79400
C61         C  0.30602051  0.11393717  0.71569083     0.80600
N62         N  0.26928424  0.11982638  0.70700902    -0.77700
C63         C  0.24403261  0.12844705  0.73403490     0.83000
N64         N  0.25574960  0.13188827  0.76978120    -0.77700
C65         C  0.29180333  0.12500067  0.77930816     0.83100
N66         N  0.31716254  0.11671177  0.75209367    -0.79400
C67         C  0.14647526  0.29463947  0.71639996     0.80600
N68         N  0.15082844  0.30532065  0.75288456    -0.77700
C69         C  0.15744190  0.27895259  0.77965748     0.83000
N70         N  0.16083865  0.24255171  0.76962997    -0.77700
C71         C  0.15585268  0.23156663  0.73390707     0.83100
N72         N  0.14887428  0.25761087  0.70731769    -0.79400
C73         C  0.31927446  0.78943190  0.85901915     0.80600
N74         N  0.31273375  0.80030379  0.82310892    -0.77700
C75         C  0.29947620  0.77543011  0.79767883     0.83000
N76         N  0.29269776  0.73966287  0.80819580    -0.77700
C77         C  0.30049662  0.72800362  0.84330442     0.83100
N78         N  0.31318596  0.75304872  0.86887674    -0.79400
C79         C  0.14095273  0.79496787  0.69302623     0.80600
N80         N  0.17790037  0.80416241  0.69591942    -0.77700
C81         C  0.20409158  0.77718444  0.70186063     0.83000
N82         N  0.19300542  0.74118650  0.70620260    -0.77700
C83         C  0.15654850  0.73134998  0.70275799     0.83100
N84         N  0.13036650  0.75844413  0.69683144    -0.79400
C85         C  0.13978903  0.62839750  0.86453781     0.80600
N86         N  0.12869029  0.63356072  0.82851246    -0.77700
C87         C  0.15459783  0.63948305  0.80138880     0.83000
N88         N  0.19132611  0.64105389  0.81053621    -0.77700
C89         C  0.20286471  0.63534699  0.84608380     0.83100
N90         N  0.17692062  0.62977547  0.87331088    -0.79400
C91         C  0.30476434  0.62673224  0.86693088     0.80600
N92         N  0.31521671  0.66328254  0.86257144    -0.77700
C93         C  0.28941758  0.68995045  0.85412350     0.83000
N94         N  0.25320461  0.68008492  0.84981556    -0.77700
C95         C  0.24191184  0.64438214  0.85524308     0.83100
N96         N  0.26780459  0.61746192  0.86313531    -0.79400
C97         C  0.13485268  0.62941118  0.70056146     0.80600
N98         N  0.13686799  0.62161154  0.73775159    -0.77700
C99         C  0.14370980  0.64904590  0.76304973     0.83000
N100        N  0.14886802  0.68460778  0.75108266    -0.77700
C101        C  0.14570202  0.69337679  0.71442286     0.83100
N102        N  0.13958837  0.66558407  0.68906055    -0.79400
C103        C  0.30471158  0.80455319  0.69843973     0.80600
N104        N  0.31404725  0.79941895  0.73500600    -0.77700
C105        C  0.28829745  0.78728853  0.76004254     0.83000
N106        N  0.25287678  0.78054585  0.74859645    -0.77700
C107        C  0.24244263  0.78715764  0.71288037     0.83100
N108        N  0.26854082  0.79846448  0.68758365    -0.79400
C109        C  0.80053855  0.80107253  0.70173006     0.80600
N110        N  0.76386304  0.81173828  0.70499594    -0.77700
C111        C  0.73689398  0.78561810  0.71189077     0.83000
N112        N  0.74689349  0.74932498  0.71656628    -0.77700
C113        C  0.78289971  0.73825081  0.71263492     0.83100
N114        N  0.80967584  0.76418474  0.70556323    -0.79400
C115        C  0.62475274  0.79711547  0.86536571     0.80600
N116        N  0.62912502  0.76048884  0.87527098    -0.77700
C117        C  0.63705681  0.73407140  0.84902185     0.83000
N118        N  0.64186309  0.74464995  0.81300804    -0.77700
C119        C  0.63678722  0.78074234  0.80242546     0.83100
N120        N  0.62882960  0.80703393  0.82879129    -0.79400
C121        C  0.80110835  0.63443106  0.87260870     0.80600
N122        N  0.81107970  0.63817326  0.83596273    -0.77700
C123        C  0.78455330  0.64451394  0.80945533     0.83000
N124        N  0.74833911  0.64824665  0.81979653    -0.77700
C125        C  0.73774164  0.64408196  0.85578519     0.83100
N126        N  0.76419034  0.63751757  0.88232792    -0.79400
C127        C  0.80442833  0.63662620  0.70792648     0.80600
N128        N  0.80022226  0.67314540  0.69756051    -0.77700
C129        C  0.79298239  0.69994801  0.72352423     0.83000
N130        N  0.78941806  0.69014406  0.75981814    -0.77700
C131        C  0.79448467  0.65424946  0.77085594     0.83100
N132        N  0.80128225  0.62734398  0.74477277    -0.79400
C133        C  0.63603977  0.63280708  0.87442662     0.80600
N134        N  0.62418078  0.66854630  0.86745988    -0.77700
C135        C  0.64918339  0.69626588  0.86003531     0.83000
N136        N  0.68609278  0.68796643  0.85804883    -0.77700
C137        C  0.69866451  0.65297106  0.86534593     0.83100
N138        N  0.67360078  0.62549479  0.87334863    -0.79400
C139        C  0.63543384  0.80677169  0.70158969     0.80600
N140        N  0.67288372  0.80471454  0.69387049    -0.77700
C141        C  0.69800765  0.79603139  0.72102958     0.83000
N142        N  0.68552013  0.78888701  0.75597993    -0.77700
C143        C  0.64873779  0.79181469  0.76464335     0.83100
N144        N  0.62362529  0.80011450  0.73729015    -0.79400
C145        C  0.14923559  0.61286374  0.19849302     0.80600
N146        N  0.13970447  0.61538990  0.23531466    -0.77700
C147        C  0.16654979  0.61770468  0.26210363     0.83000
N148        N  0.20295924  0.61935642  0.25183115    -0.77700
C149        C  0.21310594  0.61671977  0.21551506     0.83100
N150        N  0.18619699  0.61386998  0.18880794    -0.79400
C151        C  0.14516389  0.77793520  0.36924535     0.80600
N152        N  0.18085444  0.78985229  0.36219403    -0.77700
C153        C  0.20745568  0.76500402  0.35075497     0.83000
N154        N  0.19815682  0.72865901  0.34577089    -0.77700
C155        C  0.16332963  0.71625439  0.35367008     0.83100
N156        N  0.13680958  0.74086698  0.36529065    -0.79400
C157        C  0.32975482  0.76995763  0.19887862     0.80600
N158        N  0.32525398  0.73278294  0.19107875    -0.77700
C159        C  0.31171686  0.70892368  0.21732326     0.83000
N160        N  0.30236542  0.72234304  0.25145889    -0.77700
C161        C  0.30799068  0.75877757  0.26033105     0.83100
N162        N  0.32104720  0.78264614  0.23383130    -0.79400
C163        C  0.31458879  0.60701928  0.19543052     0.80600
N164        N  0.27745204  0.59854126  0.19838234    -0.77700
C165        C  0.25195867  0.62580046  0.20579040     0.83000
N166        N  0.26375846  0.66139247  0.21117972    -0.77700
C167        C  0.30032821  0.67057408  0.20755132     0.83100
N168        N  0.32585724  0.64328814  0.20004201    -0.79400
C169        C  0.30737971  0.79145367  0.35892386     0.80600
N170        N  0.31955523  0.78369020  0.32361484    -0.77700
C171        C  0.29493689  0.77242581  0.29690272     0.83000
N172        N  0.25838126  0.76786541  0.30594509    -0.77700
C173        C  0.24558563  0.77657806  0.34051113     0.83100
N174        N  0.27022754  0.78794369  0.36705117    -0.79400
C175        C  0.14689100  0.61451715  0.36415848     0.80600
N176        N  0.14807512  0.65186384  0.37209868    -0.77700
C177        C  0.15420329  0.67732035  0.34471924     0.83000
N178        N  0.15915758  0.66548675  0.30921420    -0.77700
C179        C  0.15688782  0.62873842  0.30040139     0.83100
N180        N  0.15168084  0.60309453  0.32801015    -0.79400
C181        C  0.63130614  0.78357514  0.20420085     0.80600
N182        N  0.63837548  0.79529618  0.23985371    -0.77700
C183        C  0.65051912  0.77065056  0.26611515     0.83000
N184        N  0.65664661  0.73454158  0.25650052    -0.77700
C185        C  0.64890796  0.72211164  0.22170768     0.83100
N186        N  0.63623141  0.74659844  0.19564522    -0.79400
C187        C  0.80512968  0.78561275  0.37888139     0.80600
N188        N  0.81497183  0.74879269  0.37536567    -0.77700
C189        C  0.78866413  0.72244159  0.36738656     0.83000
N190        N  0.75280877  0.73322755  0.36131045    -0.77700
C191        C  0.74232959  0.76945792  0.36540111     0.83100
N192        N  0.76856807  0.79560139  0.37395835    -0.79400
C193        C  0.80922202  0.61955401  0.20865074     0.80600
N194        N  0.77252277  0.62251401  0.19847701    -0.77700
C195        C  0.74553512  0.62766005  0.22477074     0.83000
N196        N  0.75549274  0.63117686  0.26104795    -0.77700
C197        C  0.79167220  0.62764497  0.27174827     0.83100
N198        N  0.81858208  0.62229632  0.24546881    -0.79400
C199        C  0.64455817  0.62041759  0.20039741     0.80600
N200        N  0.63443752  0.65721977  0.20304464    -0.77700
C201        C  0.66016015  0.68380102  0.21184446     0.83000
N202        N  0.69611101  0.67358931  0.21802748    -0.77700
C203        C  0.70706647  0.63752780  0.21419045     0.83100
N204        N  0.68113969  0.61086037  0.20622954    -0.79400
C205        C  0.81182892  0.62084459  0.37317265     0.80600
N206        N  0.80663690  0.65742989  0.38334117    -0.77700
C207        C  0.79936102  0.68400645  0.35713252     0.83000
N208        N  0.79585868  0.67375641  0.32096932    -0.77700
C209        C  0.80142960  0.63787976  0.31019611     0.83100
N210        N  0.80921641  0.61143927  0.33630501    -0.79400
C211        C  0.64208360  0.79775912  0.36560688     0.80600
N212        N  0.67779660  0.79133075  0.37757191    -0.77700
C213        C  0.70472755  0.78059122  0.35291979     0.83000
N214        N  0.69559784  0.77522300  0.31661019    -0.77700
C215        C  0.66058172  0.78253529  0.30407392     0.83100
N216        N  0.63381270  0.79349841  0.32868192    -0.79400
C217        C  0.82061631  0.28901528  0.22395993     0.80600
N218        N  0.82839477  0.28512191  0.26110473    -0.77700
C219        C  0.80082032  0.27533630  0.28542813     0.83000
N220        N  0.76600289  0.26831643  0.27236518    -0.77700
C221        C  0.75771949  0.27268697  0.23581604     0.83100
N222        N  0.78507459  0.28282580  0.21152399    -0.79400
C223        C  0.81270773  0.11793796  0.38849307     0.80600
N224        N  0.82213209  0.15491531  0.38684886    -0.77700
C225        C  0.79541707  0.18148428  0.38161266     0.83000
N226        N  0.75933472  0.17085831  0.37693015    -0.77700
C227        C  0.74928576  0.13435483  0.37919151     0.83100
N228        N  0.77612560  0.10782043  0.38430066    -0.79400
C229        C  0.64322593  0.11616855  0.21842199     0.80600
N230        N  0.64663399  0.10703749  0.25529412    -0.77700
C231        C  0.65730901  0.13331460  0.28066345     0.83000
N232        N  0.66517926  0.16845755  0.26902365    -0.77700
C233        C  0.66095093  0.17833029  0.23283951     0.83100
N234        N  0.65039660  0.15207014  0.20742608    -0.79400
C235        C  0.65849008  0.27888750  0.20713785     0.80600
N236        N  0.64756247  0.24256155  0.21156299    -0.77700
C237        C  0.67294391  0.21599391  0.22155099     0.83000
N238        N  0.70885880  0.22614563  0.22827593    -0.77700
C239        C  0.72031619  0.26188300  0.22294077     0.83100
N240        N  0.69499628  0.28829726  0.21282071    -0.79400
C241        C  0.64764615  0.11309807  0.38182774     0.80600
N242        N  0.68388142  0.11712313  0.39309942    -0.77700
C243        C  0.71122769  0.12401230  0.36763140     0.83000
N244        N  0.70202061  0.12795665  0.33120010    -0.77700
C245        C  0.66626894  0.12346172  0.31946419     0.83100
N246        N  0.63888647  0.11667798  0.34494444    -0.79400
C247        C  0.81512449  0.28353391  0.38786794     0.80600
N248        N  0.81371549  0.29276549  0.35089794    -0.77700
C249        C  0.80880912  0.26579993  0.32449554     0.83000
N250        N  0.80395218  0.22981798  0.33521093    -0.77700
C251        C  0.80574921  0.21997659  0.37159464     0.83100
N252        N  0.81102767  0.24687819  0.39795871    -0.79400
C253        C  0.15995143  0.28938492  0.21410436     0.80600
N254        N  0.19630775  0.28380142  0.20381239    -0.77700
C255        C  0.22209857  0.27218640  0.22907079     0.83000
N256        N  0.21142955  0.26586656  0.26478461    -0.77700
C257        C  0.17581412  0.27269239  0.27595550     0.83100
N258        N  0.14991683  0.28375158  0.25043085    -0.79400
C259        C  0.32576416  0.10789812  0.20780241     0.80600
N260        N  0.32097122  0.14436497  0.19720457    -0.77700
C261        C  0.31133967  0.17081152  0.22290042     0.83000
N262        N  0.30543401  0.16059490  0.25874707    -0.77700
C263        C  0.31089171  0.12488851  0.26991138     0.83100
N264        N  0.32101252  0.09857028  0.24444800    -0.79400
C265        C  0.15328427  0.11205769  0.37801877     0.80600
N266        N  0.14416214  0.14921938  0.37534346    -0.77700
C267        C  0.17126265  0.17533073  0.36897137     0.83000
N268        N  0.20705577  0.16401955  0.36376099    -0.77700
C269        C  0.21672440  0.12754087  0.36681077     0.83100
N270        N  0.18981856  0.10160830  0.37372659    -0.79400
C271        C  0.31762751  0.10306056  0.37080763     0.80600
N272        N  0.28129655  0.10826667  0.38137342    -0.77700
C273        C  0.25467610  0.11641488  0.35556638     0.83000
N274        N  0.26469919  0.12065638  0.31935956    -0.77700
C275        C  0.30048111  0.11479817  0.30823121     0.83100
N276        N  0.32699657  0.10632902  0.33404021    -0.79400
C277        C  0.15348349  0.27778469  0.37703383     0.80600
N278        N  0.15594626  0.24078617  0.38646588    -0.77700
C279        C  0.16214963  0.21444861  0.35958627     0.83000
N280        N  0.16757735  0.22550112  0.32384916    -0.77700
C281        C  0.16489346  0.26199176  0.31402749     0.83100
N282        N  0.15815345  0.28822496  0.34073871    -0.79400
C283        C  0.32206516  0.27152020  0.20035044     0.80600
N284        N  0.32976012  0.23416029  0.20299340    -0.77700
C285        C  0.30237388  0.20954461  0.21245593     0.83000
N286        N  0.26763596  0.22255123  0.22034395    -0.77700
C287        C  0.25926519  0.25936307  0.21697310     0.83100
N288        N  0.28660438  0.28394845  0.20733315    -0.79400
O289        O  0.52278413  0.48575507  0.22245944    -0.72600
O290        O  0.44828145  0.40104187  0.22192970    -0.73600
O291        O  0.52763133  0.40579911  0.22396865    -0.62200
O292        O  0.44341303  0.48057193  0.22033519    -0.70600
O293        O  0.44555585  0.48010766  0.15857246    -0.70100
O294        O  0.52943755  0.40407430  0.16230946    -0.61400
O295        O  0.44950577  0.40004810  0.16016601    -0.73900
O296        O  0.52550742  0.48390036  0.16068251    -0.72700
Cu297      Cu  0.48550941  0.44332560  0.22427498     1.04600
Cu298      Cu  0.48756783  0.44197987  0.15827736     1.04300
C299        C  0.53583519  0.49824275  0.19169918     0.93600
C300        C  0.43697778  0.38721030  0.19102570     0.92800
C301        C  0.54183871  0.39288790  0.19383709     0.84900
C302        C  0.43117571  0.49226816  0.18895062     0.91200
O303        O  0.16800413  0.49351123  0.49965642    -0.72600
O304        O  0.16738132  0.41652960  0.58177047    -0.73600
O305        O  0.17085666  0.41360056  0.50200094    -0.62200
O306        O  0.16438966  0.49612384  0.57895551    -0.70600
O307        O  0.10249625  0.49543591  0.57533023    -0.70100
O308        O  0.10945239  0.40954813  0.50091734    -0.61400
O309        O  0.10547238  0.41516259  0.58103176    -0.73900
O310        O  0.10626913  0.48991301  0.49549370    -0.72700
Cu311      Cu  0.16969366  0.45500759  0.54066355     1.04600
Cu312      Cu  0.10373219  0.45242677  0.53806130     1.04300
C313        C  0.13733978  0.50388643  0.48453196     0.93600
C314        C  0.13656189  0.40385176  0.59472523     0.92800
C315        C  0.14131841  0.39798569  0.48924115     0.84900
C316        C  0.13259145  0.50892954  0.58922041     0.91200
O317        O  0.43590370  0.07214639  0.58795994    -0.72600
O318        O  0.51889405  0.07422568  0.50985090    -0.73600
O319        O  0.51660861  0.07692096  0.59014135    -0.62200
O320        O  0.43901446  0.06901348  0.50747680    -0.70600
O321        O  0.43637993  0.13086464  0.50523710    -0.70100
O322        O  0.51210588  0.13868832  0.58835283    -0.61400
O323        O  0.51563308  0.13568181  0.50908625    -0.73900
O324        O  0.43260316  0.13384506  0.58504408    -0.72700
Cu325      Cu  0.47769881  0.07086803  0.54902990     1.04600
Cu326      Cu  0.47398426  0.13675566  0.54690216     1.04300
C327        C  0.42100109  0.10295599  0.59877097     0.93600
C328        C  0.53044537  0.10551965  0.49683238     0.92800
C329        C  0.52667133  0.10913401  0.60220941     0.84900
C330        C  0.42615936  0.09894709  0.49267855     0.91200
O331        O  0.85094279  0.42313978  0.59056331    -0.72600
O332        O  0.84959728  0.49870405  0.50686082    -0.73600
O333        O  0.84858600  0.50316489  0.58647859    -0.62200
O334        O  0.85113584  0.41848223  0.51066979    -0.70600
O335        O  0.78921287  0.41659486  0.51149558    -0.70100
O336        O  0.78665950  0.50208238  0.58487373    -0.61400
O337        O  0.78763592  0.49620554  0.50530635    -0.73900
O338        O  0.78898639  0.42240669  0.59104169    -0.72700
Cu339      Cu  0.85221625  0.46090173  0.54864531     1.04600
Cu340      Cu  0.78601304  0.45926555  0.54817256     1.04300
C341        C  0.82024497  0.41100439  0.60426220     0.93600
C342        C  0.81849721  0.50928530  0.49279057     0.92800
C343        C  0.81702595  0.51614849  0.59742049     0.84900
C344        C  0.82039665  0.40405015  0.49927417     0.91200
O345        O  0.43141695  0.84482284  0.48697197    -0.72600
O346        O  0.50998802  0.85053461  0.56942961    -0.73600
O347        O  0.51197425  0.84619729  0.48908082    -0.62200
O348        O  0.42958044  0.84959974  0.56722657    -0.70600
O349        O  0.43200152  0.78771263  0.57081563    -0.70100
O350        O  0.51162963  0.78425685  0.49187873    -0.61400
O351        O  0.51139828  0.78851479  0.57089021    -0.73900
O352        O  0.43218518  0.78303160  0.49157003    -0.72700
Cu353      Cu  0.47069392  0.85006668  0.52801549     1.04600
Cu354      Cu  0.47179283  0.78389526  0.53138416     1.04300
C355        C  0.41921758  0.81274589  0.47657116     0.93600
C356        C  0.52320357  0.82004804  0.58284925     0.92800
C357        C  0.52451155  0.81450713  0.47795344     0.84900
C358        C  0.41838491  0.81892556  0.58181134     0.91200
O359        O  0.43397713  0.49602645  0.85237502    -0.72600
O360        O  0.51627557  0.41893806  0.85760258    -0.73600
O361        O  0.43675934  0.41608658  0.85479983    -0.62200
O362        O  0.51377879  0.49835890  0.85521413    -0.70600
O363        O  0.51055478  0.50146568  0.91692593    -0.70100
O364        O  0.43522932  0.41680284  0.91662548    -0.61400
O365        O  0.51494095  0.42102693  0.91924559    -0.73900
O366        O  0.43030750  0.49739007  0.91401297    -0.72700
Cu367      Cu  0.47521017  0.45729852  0.85294813     1.04600
Cu368      Cu  0.47263437  0.45925935  0.91889915     1.04300
C369        C  0.41925854  0.50922220  0.88214670     0.93600
C370        C  0.52867734  0.40758877  0.88905647     0.92800
C371        C  0.42423866  0.40308317  0.88555500     0.84900
C372        C  0.52435340  0.51286370  0.88604498     0.91200
O373        O  0.94057693  0.98914631  0.35865006    -0.72600
O374        O  0.01743516  0.90667174  0.35694240    -0.73600
O375        O  0.93774322  0.90976561  0.35816442    -0.62200
O376        O  0.02054952  0.98649424  0.35730101    -0.70600
O377        O  0.02127779  0.98715826  0.41906213    -0.70100
O378        O  0.93906298  0.90837592  0.41991009    -0.61400
O379        O  0.01947583  0.90660285  0.41869576    -0.73900
O380        O  0.94083190  0.98844079  0.42041041    -0.72700
Cu381      Cu  0.97909985  0.94803896  0.35571471     1.04600
Cu382      Cu  0.98024378  0.94764520  0.42171115     1.04300
C383        C  0.92818390  0.00160733  0.38973227     0.93600
C384        C  0.03055033  0.89344461  0.38736418     0.92800
C385        C  0.92507965  0.89709393  0.38900816     0.84900
C386        C  0.03403766  0.99907364  0.38788178     0.91200
O387        O  0.01328138  0.92618272  0.66116664    -0.72600
O388        O  0.93307182  0.00671254  0.66363486    -0.73600
O389        O  0.01305339  0.00670512  0.66233061    -0.62200
O390        O  0.93258487  0.92621422  0.66245205    -0.70600
O391        O  0.93348830  0.92574246  0.72413373    -0.70100
O392        O  0.01353136  0.00510564  0.72401550    -0.61400
O393        O  0.93376154  0.00522544  0.72547879    -0.73900
O394        O  0.01325536  0.92494914  0.72272780    -0.72700
Cu395      Cu  0.97298461  0.96642740  0.66021092     1.04600
Cu396      Cu  0.97362055  0.96521412  0.72612715     1.04300
C397        C  0.02606255  0.91272245  0.69169316     0.93600
C398        C  0.92083533  0.01854908  0.69504607     0.92800
C399        C  0.02563734  0.01897140  0.69343518     0.84900
C400        C  0.92016361  0.91339049  0.69341953     0.91200
O401        O  0.30991655  0.98429549  0.00204702    -0.72600
O402        O  0.31470446  0.89906022  0.07515619    -0.73600
O403        O  0.31229345  0.97854916  0.08087309    -0.62200
O404        O  0.31201587  0.90539288  0.99628334    -0.70600
O405        O  0.37399961  0.90560030  0.99432609    -0.70100
O406        O  0.37414467  0.98200743  0.07865675    -0.61400
O407        O  0.37670352  0.90155432  0.07476110    -0.73900
O408        O  0.37180646  0.98564719  0.99868670    -0.72700
Cu409      Cu  0.31023650  0.94169478  0.03871826     1.04600
Cu410      Cu  0.37644459  0.94368573  0.03660634     1.04300
C411        C  0.33989085  0.99839393  0.98864290     0.93600
C412        C  0.34629130  0.88692615  0.08665214     0.92800
C413        C  0.34293797  0.99233718  0.09293878     0.84900
C414        C  0.34255763  0.89434678  0.98141850     0.91200
O415        O  0.02806513  0.27740880  0.09056340    -0.72600
O416        O  0.94574362  0.27685694  0.01418951    -0.73600
O417        O  0.02516766  0.27960106  0.01127402    -0.62200
O418        O  0.94845009  0.27501256  0.09383331    -0.70600
O419        O  0.94643873  0.33683404  0.09597245    -0.70100
O420        O  0.02446793  0.34160443  0.01338290    -0.61400
O421        O  0.94366360  0.33869193  0.01543349    -0.73900
O422        O  0.02670477  0.33934117  0.09348614    -0.72700
Cu423      Cu  0.98690793  0.27521922  0.05245737     1.04600
Cu424      Cu  0.98519283  0.34135400  0.05463332     1.04300
C425        C  0.04070700  0.30806837  0.10390892     0.93600
C426        C  0.93157931  0.30749541  0.00245072     0.92800
C427        C  0.03695062  0.31112806  0.99924316     0.84900
C428        C  0.93535542  0.30508014  0.10822867     0.91200
O429        O  0.64941917  0.91226716  0.07972627    -0.72600
O430        O  0.65549325  0.99731793  0.00639337    -0.73600
O431        O  0.65394021  0.99158249  0.08599256    -0.62200
O432        O  0.65095860  0.91792128  0.00048924    -0.70600
O433        O  0.58909236  0.92056880  0.00003169    -0.70100
O434        O  0.59218127  0.99635690  0.08493814    -0.61400
O435        O  0.59367272  0.00071949  0.00476652    -0.73900
O436        O  0.58751155  0.91645654  0.08034033    -0.72700
Cu437      Cu  0.65449903  0.95467651  0.04319351     1.04600
Cu438      Cu  0.58841554  0.95866411  0.04247139     1.04300
C439        C  0.61771572  0.90105624  0.09178658     0.93600
C440        C  0.62564896  0.01235523  0.99366559     0.92800
C441        C  0.62371717  0.00554644  0.09916336     0.84900
C442        C  0.61968471  0.90751000  0.98663949     0.91200
O443        O  0.93563618  0.64913338  0.07919992    -0.72600
O444        O  0.01303975  0.65214908  0.99722292    -0.73600
O445        O  0.93302507  0.65270326  0.99958367    -0.62200
O446        O  0.01568812  0.64899332  0.07666002    -0.70600
O447        O  0.01496222  0.58705681  0.07440862    -0.70100
O448        O  0.93270995  0.59088152  0.99626524    -0.61400
O449        O  0.01317077  0.59070877  0.99460748    -0.73900
O450        O  0.93490089  0.58727240  0.07631388    -0.72700
Cu451      Cu  0.97432071  0.65281523  0.03824992     1.04600
Cu452      Cu  0.97390577  0.58684224  0.03527768     1.04300
C453        C  0.92305971  0.61776563  0.09090344     0.93600
C454        C  0.02588963  0.62198844  0.98284389     0.92800
C455        C  0.91969606  0.62253442  0.98568384     0.84900
C456        C  0.02847000  0.61744612  0.08767516     0.91200
C457        C  0.35308662  0.29923750  0.19536005    -0.05000
C458        C  0.38525818  0.29764626  0.21837826    -0.02100
C459        C  0.41308114  0.32566001  0.21606352     0.02900
C460        C  0.40891822  0.35612400  0.19124226    -0.05000
C461        C  0.37725559  0.35723444  0.16756900    -0.02100
C462        C  0.34968735  0.32886276  0.16946189     0.02900
C463        C  0.38914223  0.26811368  0.24585002     0.37500
C464        C  0.37207723  0.38846261  0.14229461     0.37500
C465        C  0.31796179  0.32996065  0.14429586     0.36000
C466        C  0.44641806  0.32267207  0.23896969     0.36000
N467        N  0.29274179  0.33078612  0.12410199    -0.38900
N468        N  0.47303183  0.32020721  0.25716047    -0.38900
N469        N  0.36796686  0.41345140  0.12221976    -0.38300
N470        N  0.39221188  0.24460257  0.26779760    -0.38300
C471        C  0.14986659  0.30723571  0.40656026    -0.05000
C472        C  0.11579890  0.32630196  0.41194600    -0.02100
C473        C  0.11264760  0.35515230  0.43904214     0.02900
C474        C  0.14417546  0.36637736  0.46076456    -0.05000
C475        C  0.17864927  0.34707650  0.45458058    -0.02100
C476        C  0.18114731  0.31762264  0.42810864     0.02900
C477        C  0.08376558  0.31609638  0.38929740     0.37500
C478        C  0.21218235  0.35706358  0.47505807     0.37500
C479        C  0.21647482  0.29836059  0.42235675     0.36000
C480        C  0.07664988  0.37332686  0.44360956     0.36000
N481        N  0.24462860  0.28301500  0.41778507    -0.38900
N482        N  0.04772052  0.38746479  0.44712182    -0.38900
N483        N  0.23922303  0.36493242  0.49097272    -0.38300
N484        N  0.05833753  0.30792383  0.37108296    -0.38300
C485        C  0.34739674  0.09884590  0.39997802    -0.05000
C486        C  0.34266929  0.07364036  0.43002453    -0.02100
C487        C  0.36881525  0.07263774  0.45974243     0.02900
C488        C  0.39990513  0.09715774  0.46004169    -0.05000
C489        C  0.40569180  0.12079422  0.42891559    -0.02100
C490        C  0.37971664  0.12172663  0.39921102     0.02900
C491        C  0.31106656  0.04821461  0.43009629     0.37500
C492        C  0.43903211  0.14376406  0.42677275     0.37500
C493        C  0.38591330  0.14747665  0.36854110     0.36000
C494        C  0.36297541  0.04696634  0.49044606     0.36000
N495        N  0.39109417  0.16794840  0.34410648    -0.38900
N496        N  0.35825500  0.02628352  0.51478629    -0.38900
N497        N  0.46555322  0.16213084  0.42463644    -0.38300
N498        N  0.28582203  0.02797345  0.42995588    -0.38300
C499        C  0.06507020  0.02742208  0.38677661    -0.05000
C500        C  0.09643997  0.02156413  0.36344954    -0.02100
C501        C  0.12495305  0.04892917  0.36057685     0.02900
C502        C  0.12318114  0.08257141  0.38174915    -0.05000
C503        C  0.09217414  0.08786482  0.40591840    -0.02100
C504        C  0.06325667  0.06071478  0.40812867     0.02900
C505        C  0.09995920  0.98668706  0.34290012     0.37500
C506        C  0.09029378  0.12085420  0.42943746     0.37500
C507        C  0.03087243  0.06777270  0.43148307     0.36000
C508        C  0.15545243  0.04255825  0.33460050     0.36000
N509        N  0.00494106  0.07343803  0.44998409    -0.38900
N510        N  0.17971786  0.03728046  0.31386564    -0.38900
N511        N  0.08880499  0.14710685  0.44831380    -0.38300
N512        N  0.10276513  0.95880816  0.32667122    -0.38300
C513        C  0.33210672  0.07765914  0.17910253    -0.05000
C514        C  0.31302607  0.04291674  0.18197626    -0.02100
C515        C  0.31828384  0.01459644  0.15490939     0.02900
C516        C  0.34150799  0.02075271  0.12363107    -0.05000
C517        C  0.36075238  0.05517543  0.12061688    -0.02100
C518        C  0.35622044  0.08336597  0.14817098     0.02900
C519        C  0.28603678  0.03664072  0.21156292     0.37500
C520        C  0.38407635  0.06230560  0.08828550     0.37500
C521        C  0.37654989  0.11825183  0.14441960     0.36000
C522        C  0.29994542  0.97865498  0.15960956     0.36000
N523        N  0.39270474  0.14610396  0.14118625    -0.38900
N524        N  0.28545276  0.94996532  0.16335944    -0.38900
N525        N  0.40261197  0.06794030  0.06243643    -0.38300
N526        N  0.26435475  0.03155802  0.23498318    -0.38300
C527        C  0.13058419  0.29677023  0.18494793    -0.05000
C528        C  0.13204002  0.27803448  0.15001917    -0.02100
C529        C  0.10375355  0.28362810  0.12310778     0.02900
C530        C  0.07251082  0.30656602  0.13102228    -0.05000
C531        C  0.07115430  0.32584966  0.16546883    -0.02100
C532        C  0.10008277  0.32118908  0.19215436     0.02900
C533        C  0.16138363  0.25104264  0.14210743     0.37500
C534        C  0.03928297  0.34943403  0.17417663     0.37500
C535        C  0.09831723  0.34171709  0.22704126     0.36000
C536        C  0.10722091  0.26608304  0.08669969     0.36000
N537        N  0.09687774  0.35799906  0.25493103    -0.38900
N538        N  0.11000790  0.25231046  0.05760192    -0.38900
N539        N  0.01386958  0.36823594  0.18124545    -0.38300
N540        N  0.18458225  0.22934893  0.13570845    -0.38300
C541        C  0.81769967  0.31375781  0.41716788    -0.05000
C542        C  0.79516694  0.31231772  0.44975934    -0.02100
C543        C  0.79698976  0.34112256  0.47687326     0.02900
C544        C  0.82050963  0.37249837  0.47158232    -0.05000
C545        C  0.84291097  0.37412452  0.43909815    -0.02100
C546        C  0.84176031  0.34492479  0.41229510     0.02900
C547        C  0.76853865  0.28213819  0.45493564     0.37500
C548        C  0.86612377  0.40668910  0.43233257     0.37500
C549        C  0.86586102  0.34700415  0.37982082     0.36000
C550        C  0.77496835  0.33799038  0.51075540     0.36000
N551        N  0.88504249  0.34875364  0.35388168    -0.38900
N552        N  0.75749934  0.33548894  0.53781225    -0.38900
N553        N  0.88451218  0.43274296  0.42688230    -0.38300
N554        N  0.74715780  0.25822002  0.45915343    -0.38300
C555        C  0.61727300  0.11047947  0.41028076    -0.05000
C556        C  0.61108962  0.07710313  0.43012875    -0.02100
C557        C  0.58288327  0.07512413  0.45792353     0.02900
C558        C  0.56081011  0.10716821  0.46711065    -0.05000
C559        C  0.56806884  0.14100134  0.44718124    -0.02100
C560        C  0.59535750  0.14217832  0.41858806     0.02900
C561        C  0.63364282  0.04445235  0.42143416     0.37500
C562        C  0.54823510  0.17539520  0.45583296     0.37500
C563        C  0.60132832  0.17654125  0.39782781     0.36000
C564        C  0.57757681  0.03986566  0.47715962     0.36000
N565        N  0.60592935  0.20385588  0.38116457    -0.38900
N566        N  0.57356271  0.01152431  0.49220583    -0.38900
N567        N  0.53290819  0.20312186  0.46266415    -0.38300
N568        N  0.65167969  0.01848120  0.41438309    -0.38300
C569        C  0.57285591  0.36461232  0.19574931    -0.05000
C570        C  0.60050241  0.36725065  0.22393107    -0.02100
C571        C  0.62835161  0.33939983  0.22744387     0.02900
C572        C  0.62983746  0.30897164  0.20215077    -0.05000
C573        C  0.60309299  0.30687493  0.17325414    -0.02100
C574        C  0.57461923  0.33429614  0.17019433     0.02900
C575        C  0.60104392  0.39911868  0.24908804     0.37500
C576        C  0.60524236  0.27675815  0.14616539     0.37500
C577        C  0.54642845  0.33032980  0.14138945     0.36000
C578        C  0.65457093  0.34142433  0.25829848     0.36000
N579        N  0.52395284  0.32710848  0.11839874    -0.38900
N580        N  0.67540199  0.34297906  0.28294257    -0.38900
N581        N  0.60705913  0.25282278  0.12446660    -0.38300
N582        N  0.60159788  0.42451260  0.26914576    -0.38300
C583        C  0.63547682  0.08643365  0.18965028    -0.05000
C584        C  0.65468541  0.05169038  0.19061291    -0.02100
C585        C  0.64941058  0.02482246  0.16202231     0.02900
C586        C  0.62574391  0.03248606  0.13132909    -0.05000
C587        C  0.60531454  0.06644875  0.13112082    -0.02100
C588        C  0.61012665  0.09316420  0.16003039     0.02900
C589        C  0.68139209  0.04393167  0.22007007     0.37500
C590        C  0.57995745  0.07454073  0.10062897     0.37500
C591        C  0.58848194  0.12751773  0.15942572     0.36000
C592        C  0.66759964  0.98859866  0.16488797     0.36000
N593        N  0.57122575  0.15492986  0.15898764    -0.38900
N594        N  0.68181655  0.95959529  0.16730196    -0.38900
N595        N  0.55959209  0.08098440  0.07639835    -0.38300
N596        N  0.70277498  0.03767170  0.24346960    -0.38300
C597        C  0.89886286  0.03160676  0.39001826    -0.05000
C598        C  0.90178810  0.06263273  0.36573017    -0.02100
C599        C  0.87386601  0.09069485  0.36539704     0.02900
C600        C  0.84269107  0.08854667  0.38974224    -0.05000
C601        C  0.83972988  0.05748148  0.41400988    -0.02100
C602        C  0.86742225  0.02907559  0.41392189     0.02900
C603        C  0.93388304  0.06610656  0.34117238     0.37500
C604        C  0.80846224  0.05492544  0.43966506     0.37500
C605        C  0.86252370  0.99631479  0.43726394     0.36000
C606        C  0.87669430  0.12103677  0.33868430     0.36000
N607        N  0.85852553  0.97005210  0.45567322    -0.38900
N608        N  0.87895846  0.14517511  0.31733116    -0.38900
N609        N  0.78357343  0.05284597  0.46019798    -0.38300
N610        N  0.95941728  0.06881392  0.32152073    -0.38300
C611        C  0.85142173  0.29528449  0.19627896    -0.05000
C612        C  0.84872448  0.32400378  0.16933198    -0.02100
C613        C  0.87645523  0.32796078  0.14131141     0.02900
C614        C  0.90712229  0.30277701  0.13938194    -0.05000
C615        C  0.91016011  0.27457856  0.16704827    -0.02100
C616        C  0.88254335  0.27084052  0.19511783     0.02900
C617        C  0.81729991  0.34970438  0.17046364     0.37500
C618        C  0.94211609  0.24950670  0.16727450     0.37500
C619        C  0.88536186  0.24048401  0.22182395     0.36000
C620        C  0.87250562  0.35738868  0.11378968     0.36000
N621        N  0.88748637  0.21625145  0.24308884    -0.38900
N622        N  0.86934570  0.38099653  0.09196293    -0.38900
N623        N  0.96753493  0.22943121  0.16755370    -0.38300
N624        N  0.79218310  0.37014245  0.17132246    -0.38300
C625        C  0.55386538  0.81222880  0.44823885    -0.05000
C626        C  0.58684248  0.83402024  0.45021929    -0.02100
C627        C  0.61525081  0.83004105  0.42287333     0.02900
C628        C  0.61122673  0.80399046  0.39334363    -0.05000
C629        C  0.57800724  0.78242146  0.39132613    -0.02100
C630        C  0.54950907  0.78679163  0.41830289     0.02900
C631        C  0.59240017  0.85938824  0.48132774     0.37500
C632        C  0.57355084  0.75422644  0.36247820     0.37500
C633        C  0.51529012  0.76519219  0.41486571     0.36000
C634        C  0.64849064  0.85317434  0.42497825     0.36000
N635        N  0.48801872  0.74798665  0.41217347    -0.38900
N636        N  0.67500550  0.87164621  0.42663269    -0.38900
N637        N  0.56993891  0.73169162  0.33954992    -0.38300
N638        N  0.59691917  0.87950131  0.50624049    -0.38300
C639        C  0.81615854  0.59091393  0.40265536    -0.05000
C640        C  0.79949220  0.55498088  0.39825694    -0.02100
C641        C  0.80115540  0.52820094  0.42731035     0.02900
C642        C  0.81828256  0.53703378  0.46163381    -0.05000
C643        C  0.83554288  0.57228934  0.46597556    -0.02100
C644        C  0.83545468  0.59856606  0.43642981     0.02900
C645        C  0.77964212  0.54527808  0.36433141     0.37500
C646        C  0.85215893  0.58218115  0.50156047     0.37500
C647        C  0.85673199  0.63284879  0.44052826     0.36000
C648        C  0.78596370  0.49097389  0.42153709     0.36000
N649        N  0.87412413  0.65994015  0.44380112    -0.38900
N650        N  0.77415396  0.46118940  0.41691018    -0.38900
N651        N  0.86503561  0.59007860  0.53010499    -0.38300
N652        N  0.76386378  0.53726043  0.33730468    -0.38300
C653        C  0.61538364  0.59026649  0.19533031    -0.05000
C654        C  0.57884994  0.59417674  0.21072875    -0.02100
C655        C  0.55276692  0.56447429  0.20851076     0.02900
C656        C  0.56287910  0.53002245  0.19209615    -0.05000
C657        C  0.59875146  0.52609206  0.17615604    -0.02100
C658        C  0.62443091  0.55623374  0.17682424     0.02900
C659        C  0.56780620  0.62819522  0.22995978     0.37500
C660        C  0.60987016  0.49034146  0.16039864     0.37500
C661        C  0.65969984  0.55233148  0.15718644     0.36000
C662        C  0.51498663  0.56963215  0.22252689     0.36000
N663        N  0.68767508  0.54922682  0.14122770    -0.38900
N664        N  0.48478477  0.57375767  0.23342294    -0.38900
N665        N  0.61877830  0.46168566  0.14820190    -0.38300
N666        N  0.55870453  0.65525996  0.24525598    -0.38300
C667        C  0.89462402  0.61696803  0.12177082    -0.05000
C668        C  0.86391096  0.59193378  0.12062472    -0.02100
C669        C  0.83644743  0.59237662  0.14914615     0.02900
C670        C  0.83918963  0.61776769  0.17934505    -0.05000
C671        C  0.87017899  0.64243136  0.18076098    -0.02100
C672        C  0.89777189  0.64178561  0.15245496     0.02900
C673        C  0.85977336  0.56623936  0.08954899     0.37500
C674        C  0.87314662  0.66977926  0.21058502     0.37500
C675        C  0.93004522  0.66619989  0.15564674     0.36000
C676        C  0.80555940  0.56613099  0.14759565     0.36000
N677        N  0.95580103  0.68561380  0.15826737    -0.38900
N678        N  0.78092102  0.54519721  0.14633669    -0.38900
N679        N  0.87554327  0.69164313  0.23430328    -0.38300
N680        N  0.85646138  0.54565182  0.06483231    -0.38300
C681        C  0.83481827  0.81520672  0.38347171    -0.05000
C682        C  0.83326256  0.84887199  0.36250714    -0.02100
C683        C  0.86195811  0.87595547  0.36556788     0.02900
C684        C  0.89348617  0.86949490  0.38848827    -0.05000
C685        C  0.89491252  0.83630234  0.40987387    -0.02100
C686        C  0.86568806  0.80956178  0.40766591     0.02900
C687        C  0.80302521  0.85536999  0.33629827     0.37500
C688        C  0.92712323  0.82893924  0.43332034     0.37500
C689        C  0.86724642  0.77650051  0.43100199     0.36000
C690        C  0.85841439  0.91117302  0.34572161     0.36000
N691        N  0.86850930  0.75019555  0.44972827    -0.38900
N692        N  0.85549628  0.93934517  0.33011822    -0.38900
N693        N  0.95285974  0.82304677  0.45197533    -0.38300
N694        N  0.77901630  0.86066138  0.31531257    -0.38300
C695        C  0.62306141  0.81183352  0.17387339    -0.05000
C696        C  0.60399700  0.84584956  0.18208975    -0.02100
C697        C  0.60111145  0.87455887  0.15497246     0.02900
C698        C  0.61654644  0.86959300  0.11908339    -0.05000
C699        C  0.63309803  0.83499285  0.10984334    -0.02100
C700        C  0.63653278  0.80637899  0.13683735     0.02900
C701        C  0.58688555  0.85156892  0.21834287     0.37500
C702        C  0.64664595  0.82879787  0.07213172     0.37500
C703        C  0.65548181  0.77207482  0.12614111     0.36000
C704        C  0.58372403  0.90999984  0.16457883     0.36000
N705        N  0.67052214  0.74477829  0.11726841    -0.38900
N706        N  0.56998813  0.93833956  0.17219378    -0.38900
N707        N  0.65730912  0.82391788  0.04204038    -0.38300
N708        N  0.57318531  0.85630497  0.24721704    -0.38300
C709        C  0.13819279  0.53267317  0.45424376    -0.05000
C710        C  0.12058197  0.52608704  0.41958303    -0.02100
C711        C  0.12290479  0.55280545  0.39048482     0.02900
C712        C  0.14348349  0.58640684  0.39534258    -0.05000
C713        C  0.16102193  0.59288843  0.43036954    -0.02100
C714        C  0.15774655  0.56657859  0.45964615     0.18500
C715        C  0.10083698  0.49120680  0.41337916     0.37500
C716        C  0.18380450  0.62595978  0.43637328     0.37500
C717        C  0.17356856  0.57507742  0.49597967     0.36000
C718        C  0.10326016  0.54577485  0.35580425     0.36000
N719        N  0.18587546  0.58197661  0.52502655    -0.38900
N720        N  0.08756785  0.54010636  0.32815515    -0.38900
N721        N  0.20201953  0.65225685  0.44134127    -0.38300
N722        N  0.08512558  0.46336873  0.40834417    -0.38300
C723        C  0.33508005  0.79861440  0.38963451    -0.05000
C724        C  0.36470096  0.82444729  0.38490388    -0.02100
C725        C  0.39186970  0.82957283  0.41328977     0.02900
C726        C  0.38953903  0.80934001  0.44712934    -0.05000
C727        C  0.35938600  0.78418990  0.45219220    -0.02100
C728        C  0.33280373  0.77840193  0.42355369     0.02900
C729        C  0.36700269  0.84629539  0.35095464     0.37500
C730        C  0.35514134  0.76454739  0.48734967     0.37500
C731        C  0.30415888  0.75008076  0.42860074     0.36000
C732        C  0.42309071  0.85461479  0.40688428     0.36000
N733        N  0.28145541  0.72737903  0.43263270    -0.38900
N734        N  0.44805132  0.87451567  0.40164485    -0.38900
N735        N  0.35171404  0.74897595  0.51541048    -0.38300
N736        N  0.36873561  0.86380837  0.32390458    -0.38300
C737        C  0.40005229  0.52028585  0.18816421    -0.05000
C738        C  0.36829095  0.51533652  0.21111864    -0.02100
C739        C  0.34031309  0.54327283  0.21318891     0.02900
C740        C  0.34310982  0.57633374  0.19148450    -0.05000
C741        C  0.37406805  0.58037269  0.16714171    -0.02100
C742        C  0.40241190  0.55266508  0.16564377     0.02900
C743        C  0.36379752  0.48085108  0.23200861     0.37500
C744        C  0.37656593  0.61277730  0.14297492     0.37500
C745        C  0.43464455  0.55816816  0.14168971     0.36000
C746        C  0.30947218  0.53832002  0.23903631     0.36000
N747        N  0.46036766  0.56247407  0.12257756    -0.38900
N748        N  0.28493581  0.53425009  0.25969366    -0.38900
N749        N  0.37856092  0.63856374  0.12360361    -0.38300
N750        N  0.36014643  0.45324706  0.24843619    -0.38300
C751        C  0.34706962  0.85529811  0.11380884    -0.05000
C752        C  0.36179131  0.86013132  0.14998474    -0.02100
C753        C  0.35867597  0.83122337  0.17682550     0.02900
C754        C  0.33930151  0.79754661  0.16837981    -0.05000
C755        C  0.32665877  0.79207565  0.13110646    -0.02100
C756        C  0.33093658  0.82063099  0.10412042     0.02900
C757        C  0.37861697  0.89561649  0.16019256     0.37500
C758        C  0.30787350  0.75780867  0.12017742     0.37500
C759        C  0.31880604  0.81431264  0.06598390     0.36000
C760        C  0.37632204  0.83605448  0.21290841     0.36000
N761        N  0.30939656  0.80929636  0.03551465    -0.38900
N762        N  0.39069516  0.83982304  0.24156751    -0.38900
N763        N  0.29296732  0.73053594  0.11111775    -0.38300
N764        N  0.39181827  0.92401287  0.16838878    -0.38300
C765        C  0.05857319  0.86229135  0.38577796    -0.05000
C766        C  0.09222202  0.86389820  0.40647704    -0.02100
C767        C  0.12003531  0.83592303  0.40195112     0.02900
C768        C  0.11449903  0.80576880  0.37686065    -0.05000
C769        C  0.07978354  0.80315574  0.35780777    -0.02100
C770        C  0.05216599  0.83116340  0.36226769     0.02900
C771        C  0.09883592  0.89495914  0.43168761     0.37500
C772        C  0.07250143  0.77231815  0.33244225     0.37500
C773        C  0.01661391  0.82746921  0.34303059     0.36000
C774        C  0.15410472  0.83787953  0.42379849     0.36000
N775        N  0.98825260  0.82450316  0.32777202    -0.38900
N776        N  0.18124876  0.83940534  0.44129981    -0.38900
N777        N  0.06645894  0.74767329  0.31236058    -0.38300
N778        N  0.10403752  0.91968098  0.45190297    -0.38300
C779        C  0.05949843  0.61608496  0.11582092    -0.05000
C780        C  0.05672968  0.59288731  0.14761114    -0.02100
C781        C  0.08633651  0.59102352  0.17381266     0.02900
C782        C  0.11909948  0.61284508  0.16908947    -0.05000
C783        C  0.12190056  0.63594092  0.13701177    -0.02100
C784        C  0.09226401  0.63767618  0.11080043     0.02900
C785        C  0.02259065  0.57205276  0.15434173     0.37500
C786        C  0.15491604  0.65873231  0.13099432     0.37500
C787        C  0.09581629  0.66147472  0.07822526     0.36000
C788        C  0.08337416  0.56556285  0.20513880     0.36000
N789        N  0.09856309  0.68053789  0.05231472    -0.38900
N790        N  0.08110406  0.54516291  0.23006055    -0.38900
N791        N  0.18128774  0.67677782  0.12589890    -0.38300
N792        N  0.99525247  0.55565341  0.15984678    -0.38300
C793        C  0.60735472  0.81257588  0.67045022    -0.05000
C794        C  0.57333903  0.83240638  0.67658485    -0.02100
C795        C  0.54659901  0.83645935  0.64756483     0.02900
C796        C  0.55301737  0.82038994  0.61214513    -0.05000
C797        C  0.58704325  0.80145932  0.60556567    -0.02100
C798        C  0.61380163  0.79722426  0.63434902     0.02900
C799        C  0.56533116  0.84859592  0.71282473     0.37500
C800        C  0.59468565  0.78645038  0.56866518     0.37500
C801        C  0.64693876  0.77498511  0.62680411     0.36000
C802        C  0.51177600  0.85614464  0.65456183     0.36000
N803        N  0.67321859  0.75710692  0.62053134    -0.38900
N804        N  0.48399712  0.87186140  0.66009747    -0.38900
N805        N  0.60066517  0.77467613  0.53917780    -0.38300
N806        N  0.55862572  0.86125788  0.74179158    -0.38300
C807        C  0.55332811  0.54289019  0.88565224    -0.05000
C808        C  0.58970612  0.53494613  0.87275751    -0.02100
C809        C  0.61674071  0.56372820  0.86958339     0.02900
C810        C  0.60791593  0.60136170  0.87979529    -0.05000
C811        C  0.57133403  0.60867059  0.89399051    -0.02100
C812        C  0.54442726  0.57966091  0.89676673     0.02900
C813        C  0.59950718  0.49663200  0.86322681     0.37500
C814        C  0.56080957  0.64593161  0.90619622     0.37500
C815        C  0.50698047  0.58784693  0.91019298     0.36000
C816        C  0.65311598  0.55400023  0.85443354     0.36000
N817        N  0.47709116  0.59424921  0.92085696    -0.38900
N818        N  0.68203506  0.54581319  0.84238388    -0.38900
N819        N  0.55203114  0.67560266  0.91579841    -0.38300
N820        N  0.60724945  0.46604737  0.85585700    -0.38300
C821        C  0.80892943  0.60658506  0.67882777    -0.05000
C822        C  0.83495100  0.57709764  0.68384622    -0.02100
C823        C  0.83781679  0.54778693  0.65731357     0.02900
C824        C  0.81526703  0.54782800  0.62488255    -0.05000
C825        C  0.79012972  0.57791357  0.61922170    -0.02100
C826        C  0.78654528  0.60670237  0.64615888     0.02900
C827        C  0.85958440  0.57724098  0.71596873     0.37500
C828        C  0.76850880  0.57992806  0.58501797     0.37500
C829        C  0.75858054  0.63564006  0.64060719     0.36000
C830        C  0.86319168  0.51686604  0.66418930     0.36000
N831        N  0.73620289  0.65861535  0.63608325    -0.38900
N832        N  0.88336981  0.49214731  0.66969946    -0.38900
N833        N  0.75143928  0.58160782  0.55765891    -0.38300
N834        N  0.87931804  0.57743747  0.74153554    -0.38300
C835        C  0.88876750  0.62454930  0.95720435    -0.05000
C836        C  0.88924912  0.60159844  0.92493381    -0.02100
C837        C  0.86040651  0.60425992  0.89785597     0.02900
C838        C  0.83081547  0.63033058  0.90216113    -0.05000
C839        C  0.83046477  0.65339510  0.93436623    -0.02100
C840        C  0.85881045  0.65015079  0.96181124     0.02900
C841        C  0.92024471  0.57612442  0.91865843     0.37500
C842        C  0.80184653  0.68189523  0.93871360     0.37500
C843        C  0.85649420  0.67278181  0.99537902     0.36000
C844        C  0.86097350  0.57954715  0.86573587     0.36000
N845        N  0.85463224  0.69073486  0.02220296    -0.38900
N846        N  0.86137582  0.55982115  0.84011628    -0.38900
N847        N  0.77918593  0.70478878  0.94218707    -0.38300
N848        N  0.94503717  0.55590479  0.91354766    -0.38300
C849        C  0.62146736  0.82667006  0.89509852    -0.05000
C850        C  0.59456044  0.82367538  0.92391268    -0.02100
C851        C  0.59383533  0.84988137  0.95370649     0.02900
C852        C  0.61930588  0.88023422  0.95460336    -0.05000
C853        C  0.64533292  0.88391643  0.92502228    -0.02100
C854        C  0.64686143  0.85706383  0.89597785     0.02900
C855        C  0.56699594  0.79396873  0.92257854     0.37500
C856        C  0.67032035  0.91587605  0.92388365     0.37500
C857        C  0.67596978  0.85994245  0.86790391     0.36000
C858        C  0.56791343  0.84445120  0.98433303     0.36000
N859        N  0.69927671  0.86209683  0.84560787    -0.38900
N860        N  0.54740929  0.83999133  0.00890193    -0.38900
N861        N  0.69017545  0.94140781  0.92286068    -0.38300
N862        N  0.54479439  0.77045774  0.92141394    -0.38300
C863        C  0.83122870  0.82971346  0.69880182    -0.05000
C864        C  0.86242661  0.82800244  0.72315785    -0.02100
C865        C  0.89158689  0.85463307  0.72071262     0.02900
C866        C  0.89005428  0.88395824  0.69420815    -0.05000
C867        C  0.85907845  0.88545947  0.66954593    -0.02100
C868        C  0.82991446  0.85860196  0.67188734     0.02900
C869        C  0.86429510  0.79935477  0.75177113     0.37500
C870        C  0.85657471  0.91517730  0.64217276     0.37500
C871        C  0.79896105  0.86022711  0.64583205     0.36000
C872        C  0.92383148  0.85095030  0.74504485     0.36000
N873        N  0.77431667  0.86152419  0.62496503    -0.38900
N874        N  0.94951966  0.84790513  0.76443349    -0.38900
N875        N  0.85464410  0.93883509  0.62025980    -0.38300
N876        N  0.86585949  0.77647612  0.77452197    -0.38300
C877        C  0.33492431  0.81161499  0.66986463    -0.05000
C878        C  0.32797172  0.83373288  0.63769766    -0.02100
C879        C  0.35542810  0.83711736  0.60927879     0.02900
C880        C  0.39034311  0.81889105  0.61275804    -0.05000
C881        C  0.39818486  0.79873911  0.64565771    -0.02100
C882        C  0.37073063  0.79461928  0.67367761     0.02900
C883        C  0.29275670  0.85350473  0.63379767     0.37500
C884        C  0.43505063  0.78244511  0.65099616     0.37500
C885        C  0.37943542  0.77115478  0.70553699     0.36000
C886        C  0.34715351  0.85825826  0.57577925     0.36000
N887        N  0.38664854  0.75243630  0.73083469    -0.38900
N888        N  0.34055905  0.87507836  0.54903022    -0.38900
N889        N  0.46446593  0.76959262  0.65526460    -0.38300
N890        N  0.26468931  0.86935687  0.63058393    -0.38300
C891        C  0.13231164  0.59785694  0.67260608    -0.05000
C892        C  0.11206277  0.60205930  0.63880225    -0.02100
C893        C  0.11178626  0.57304674  0.61170864     0.02900
C894        C  0.13105286  0.53911727  0.61819586    -0.05000
C895        C  0.15014160  0.53429977  0.65231037    -0.02100
C896        C  0.15121555  0.56340971  0.67905499     0.02900
C897        C  0.09078185  0.63592271  0.63197292     0.37500
C898        C  0.16831339  0.49883826  0.66027799     0.37500
C899        C  0.17326309  0.55784148  0.71259278     0.36000
C900        C  0.09284721  0.57876710  0.57640647     0.36000
N901        N  0.19081757  0.55320410  0.73928618    -0.38900
N902        N  0.07793282  0.58339073  0.54816388    -0.38900
N903        N  0.18267557  0.47051361  0.66663816    -0.38300
N904        N  0.07372284  0.66291587  0.62649794    -0.38300
C905        C  0.33421309  0.59673298  0.87172616    -0.05000
C906        C  0.32866798  0.56610755  0.89627066    -0.02100
C907        C  0.35617882  0.53756390  0.89975011     0.02900
C908        C  0.38997792  0.53936719  0.87924964    -0.05000
C909        C  0.39573215  0.57013673  0.85513011    -0.02100
C910        C  0.36801938  0.59815735  0.85096591     0.02900
C911        C  0.29493419  0.56414477  0.91862400     0.37500
C912        C  0.43081714  0.57361138  0.83503541     0.37500
C913        C  0.37408606  0.62765567  0.82384199     0.36000
C914        C  0.34895341  0.50554745  0.92348225     0.36000
N915        N  0.37903146  0.65104518  0.80213163    -0.38900
N916        N  0.34306824  0.47992876  0.94226470    -0.38900
N917        N  0.45885525  0.57638826  0.81912625    -0.38300
N918        N  0.26800460  0.56256358  0.93649296    -0.38300
C919        C  0.05564697  0.62345337  0.95245555    -0.05000
C920        C  0.07102069  0.65829091  0.94037153    -0.02100
C921        C  0.09842980  0.65954242  0.91187259     0.02900
C922        C  0.11121819  0.62643329  0.89476264    -0.05000
C923        C  0.09652649  0.59186110  0.90628195    -0.02100
C924        C  0.06924171  0.59010909  0.93495392     0.02900
C925        C  0.05929577  0.69351874  0.95689919     0.37500
C926        C  0.10951646  0.55784102  0.88825074     0.37500
C927        C  0.05574831  0.55351979  0.94598364     0.36000
C928        C  0.11351578  0.69523987  0.89979353     0.36000
N929        N  0.04530119  0.52411889  0.95462446    -0.38900
N930        N  0.12554351  0.72367194  0.89009010    -0.38900
N931        N  0.11984687  0.53080161  0.87375794    -0.38300
N932        N  0.05019502  0.72177532  0.96983026    -0.38300
C933        C  0.05597284  0.88276065  0.69137502    -0.05000
C934        C  0.05800773  0.85582769  0.66219064    -0.02100
C935        C  0.08574919  0.82736890  0.66257549     0.02900
C936        C  0.11197698  0.82528802  0.69190899    -0.05000
C937        C  0.11007514  0.85191935  0.72102476    -0.02100
C938        C  0.08255576  0.88044328  0.72075495     0.02900
C939        C  0.03094472  0.85637898  0.63208458     0.37500
C940        C  0.13581120  0.84923564  0.75222551     0.37500
C941        C  0.08240445  0.90774075  0.75076263     0.36000
C942        C  0.08764281  0.80039374  0.63237273     0.36000
N943        N  0.08235469  0.92934037  0.77484306    -0.38900
N944        N  0.08918794  0.77888626  0.60826337    -0.38900
N945        N  0.15627677  0.84697032  0.77711348    -0.38300
N946        N  0.00942577  0.85674344  0.60798943    -0.38300
C947        C  0.32846633  0.81790531  0.88838054    -0.05000
C948        C  0.30884051  0.85239075  0.88977739    -0.02100
C949        C  0.31544384  0.87807876  0.91897180     0.02900
C950        C  0.34049410  0.86921527  0.94816138    -0.05000
C951        C  0.36122511  0.83558388  0.94616637    -0.02100
C952        C  0.35531345  0.81011482  0.91641256     0.02900
C953        C  0.28002531  0.86089289  0.86255146     0.37500
C954        C  0.38777662  0.82649687  0.97533335     0.37500
C955        C  0.37702321  0.77584473  0.91469271     0.36000
C956        C  0.29678132  0.91422069  0.91857401     0.36000
N957        N  0.39426213  0.74845223  0.91328068    -0.38900
N958        N  0.28216581  0.94312965  0.91823172    -0.38900
N959        N  0.40903783  0.81920734  0.99853731    -0.38300
N960        N  0.25688659  0.86778991  0.84106848    -0.38300
C961        C  0.13750545  0.37542246  0.62556403    -0.05000
C962        C  0.16314899  0.34531476  0.62377658    -0.02100
C963        C  0.16702810  0.32023649  0.65396484     0.02900
C964        C  0.14345295  0.32305940  0.68564438    -0.05000
C965        C  0.11664788  0.35221683  0.68685964    -0.02100
C966        C  0.11413383  0.37861882  0.65735785     0.02900
C967        C  0.18449771  0.33882518  0.58996844     0.37500
C968        C  0.09075569  0.35435929  0.71790112     0.37500
C969        C  0.08806307  0.40958232  0.66027439     0.36000
C970        C  0.19651803  0.29229380  0.65272178     0.36000
N971        N  0.06732349  0.43435572  0.66268024    -0.38900
N972        N  0.22023670  0.27025093  0.65168865    -0.38900
N973        N  0.06992213  0.35582076  0.74256553    -0.38300
N974        N  0.20119770  0.33316364  0.56291009    -0.38300
C975        C  0.33445967  0.10949801  0.68497612    -0.05000
C976        C  0.33363395  0.13346707  0.65351009    -0.02100
C977        C  0.36089193  0.13028084  0.62501514     0.02900
C978        C  0.39013483  0.10353605  0.62754385    -0.05000
C979        C  0.39033221  0.07883446  0.65850338    -0.02100
C980        C  0.36289946  0.08198038  0.68702956     0.02900
C981        C  0.30556607  0.16275345  0.65086285     0.37500
C982        C  0.41920506  0.05050343  0.66171047     0.37500
C983        C  0.36372889  0.05639226  0.71837274     0.36000
C984        C  0.35800271  0.15423215  0.59247308     0.36000
N985        N  0.36439040  0.03602920  0.74342167    -0.38900
N986        N  0.35557564  0.17332408  0.56654978    -0.38900
N987        N  0.44206038  0.02769758  0.66427804    -0.38300
N988        N  0.28322536  0.18611064  0.64867744    -0.38300
C989        C  0.39637719  0.37203673  0.88494583    -0.05000
C990        C  0.40334178  0.33810900  0.90396266    -0.02100
C991        C  0.37652389  0.30890376  0.90352380     0.02900
C992        C  0.34260155  0.31309540  0.88346021    -0.05000
C993        C  0.33691389  0.34642597  0.86263551    -0.02100
C994        C  0.36306862  0.37594507  0.86426955     0.02900
C995        C  0.43879905  0.33272744  0.92288664     0.37500
C996        C  0.30515971  0.34991339  0.83763941     0.37500
C997        C  0.35509854  0.41094406  0.84534821     0.36000
C998        C  0.38405595  0.27469039  0.92388734     0.36000
N999        N  0.34863451  0.43892652  0.83048014    -0.38900
N1000       N  0.39029569  0.24733321  0.93996580    -0.38900
N1001       N  0.28002309  0.35257724  0.81748963    -0.38300
N1002       N  0.46722309  0.32840185  0.93770277    -0.38300
C1003       C  0.32716769  0.08895580  0.90832506    -0.05000
C1004       C  0.35181722  0.05866680  0.90092240    -0.02100
C1005       C  0.35656224  0.02943080  0.92724796     0.02900
C1006       C  0.33709981  0.03016263  0.96158075    -0.05000
C1007       C  0.31358644  0.06094142  0.96962800    -0.02100
C1008       C  0.30837848  0.08988365  0.94324057     0.02900
C1009       C  0.37297825  0.05771177  0.86642476     0.37500
C1010       C  0.29502177  0.06317501  0.00560650     0.37500
C1011       C  0.28225716  0.11975672  0.95189094     0.36000
C1012       C  0.38041344  0.99779486  0.91827954     0.36000
N1013       N  0.26138186  0.14347210  0.95907055    -0.38900
N1014       N  0.39934721  0.97248928  0.91113271    -0.38900
N1015       N  0.28037190  0.06478261  0.03434863    -0.38300
N1016       N  0.38995046  0.05689326  0.83894997    -0.38300
C1017       C  0.11142899  0.10497527  0.70238441    -0.05000
C1018       C  0.07999004  0.10515576  0.72638605    -0.02100
C1019       C  0.05133553  0.07825332  0.72214062     0.02900
C1020       C  0.05413962  0.04985483  0.69464792    -0.05000
C1021       C  0.08463087  0.05095361  0.66935205    -0.02100
C1022       C  0.11292706  0.07848877  0.67312378     0.02900
C1023       C  0.07753492  0.13223363  0.75651594     0.37500
C1024       C  0.08761266  0.02333046  0.63985849     0.37500
C1025       C  0.14318461  0.08025661  0.64622452     0.36000
C1026       C  0.01821621  0.08074367  0.74545716     0.36000
N1027       N  0.16721378  0.08202529  0.62466988    -0.38900
N1028       N  0.99167867  0.08289980  0.76382878    -0.38900
N1029       N  0.09008800  0.00145000  0.61616149    -0.38300
N1030       N  0.07554433  0.15379833  0.78054821    -0.38300
C1031       C  0.06468904  0.31173070  0.96793128    -0.05000
C1032       C  0.10009237  0.32879506  0.97205585    -0.02100
C1033       C  0.12729726  0.32598819  0.94330680     0.02900
C1034       C  0.11961312  0.30571090  0.91006294    -0.05000
C1035       C  0.08345279  0.28985942  0.90564397    -0.02100
C1036       C  0.05625802  0.29323400  0.93415918     0.02900
C1037       C  0.10911063  0.34806467  0.00652299     0.37500
C1038       C  0.07434453  0.26826372  0.87260049     0.37500
C1039       C  0.01907205  0.27793271  0.92855861     0.36000
C1040       C  0.16313500  0.34439641  0.94800324     0.36000
N1041       N  0.98931955  0.26598589  0.92420539    -0.38900
N1042       N  0.19171866  0.35909185  0.95178096    -0.38900
N1043       N  0.06693285  0.25096820  0.84631902    -0.38300
N1044       N  0.11637261  0.36338248  0.03403599    -0.38300
C1045       C  0.61180796  0.12182448  0.68870354    -0.05000
C1046       C  0.61748303  0.09701217  0.65829743    -0.02100
C1047       C  0.58976900  0.09269799  0.63029269     0.02900
C1048       C  0.55558150  0.11259934  0.63243408    -0.05000
C1049       C  0.54970829  0.13710748  0.66292385    -0.02100
C1050       C  0.57764374  0.14200430  0.69053644     0.02900
C1051       C  0.65179845  0.07546651  0.65579908     0.37500
C1052       C  0.51453159  0.15716879  0.66622763     0.37500
C1053       C  0.57169810  0.16947077  0.71978620     0.36000
C1054       C  0.59736308  0.06911040  0.59820175     0.36000
N1055       N  0.56692506  0.19154606  0.74295265    -0.38900
N1056       N  0.60354035  0.05051761  0.57247625    -0.38900
N1057       N  0.48645108  0.17311480  0.66877964    -0.38300
N1058       N  0.67917183  0.05827200  0.65370895    -0.38300
C1059       C  0.81965968  0.32940629  0.69449005    -0.05000
C1060       C  0.84438008  0.32524998  0.66391840    -0.02100
C1061       C  0.84481487  0.35187921  0.63469372     0.02900
C1062       C  0.82087938  0.38346312  0.63579024    -0.05000
C1063       C  0.79751301  0.38862701  0.66723909    -0.02100
C1064       C  0.79674666  0.36178798  0.69625546     0.02900
C1065       C  0.87034146  0.29405402  0.66298887     0.37500
C1066       C  0.77484588  0.42220732  0.67032972     0.37500
C1067       C  0.77139041  0.36725283  0.72739601     0.36000
C1068       C  0.86917901  0.34596324  0.60285787     0.36000
N1069       N  0.75124493  0.37175499  0.75227481    -0.38900
N1070       N  0.88861005  0.34124138  0.57746232    -0.38900
N1071       N  0.75691458  0.44907544  0.67283737    -0.38300
N1072       N  0.89130739  0.26937503  0.66234014    -0.38300
C1073       C  0.55893451  0.37826465  0.89006764    -0.05000
C1074       C  0.55885171  0.34859365  0.86377444    -0.02100
C1075       C  0.58781360  0.32161305  0.86350691     0.02900
C1076       C  0.61748042  0.32349510  0.88966415    -0.05000
C1077       C  0.61730903  0.35263390  0.91638790    -0.02100
C1078       C  0.58829388  0.37979583  0.91663733     0.02900
C1079       C  0.52837220  0.34494955  0.83726351     0.37500
C1080       C  0.64642102  0.35405583  0.94449021     0.37500
C1081       C  0.58936829  0.40985136  0.94381972     0.36000
C1082       C  0.58723243  0.29224425  0.83545384     0.36000
N1083       N  0.59020760  0.43379412  0.96556665    -0.38900
N1084       N  0.58662697  0.26872995  0.81323111    -0.38900
N1085       N  0.66955448  0.35511303  0.96702280    -0.38300
N1086       N  0.50418630  0.34195297  0.81603437    -0.38300
C1087       C  0.84398831  0.30212233  0.91728176    -0.05000
C1088       C  0.87173134  0.33033599  0.91593584    -0.02100
C1089       C  0.89983347  0.33257439  0.94385892     0.02900
C1090       C  0.90096708  0.30633787  0.97348483    -0.05000
C1091       C  0.87338153  0.27780479  0.97443317    -0.02100
C1092       C  0.84540260  0.27563395  0.94654039     0.02900
C1093       C  0.87140212  0.35729706  0.88577148     0.37500
C1094       C  0.87317359  0.25065383  0.00448633     0.37500
C1095       C  0.81907711  0.24474011  0.94702521     0.36000
C1096       C  0.92841995  0.36121217  0.94113108     0.36000
N1097       N  0.79823006  0.21999389  0.94723902    -0.38900
N1098       N  0.95124190  0.38404688  0.93897492    -0.38900
N1099       N  0.87300167  0.22889205  0.02835123    -0.38300
N1100       N  0.87132624  0.37874675  0.86163131    -0.38300
C1101       C  0.83457151  0.10442574  0.70278695    -0.05000
C1102       C  0.82710060  0.06659218  0.71314350    -0.02100
C1103       C  0.85531931  0.03885179  0.71050774     0.02900
C1104       C  0.89100766  0.04773614  0.69644786    -0.05000
C1105       C  0.89828914  0.08454992  0.68449405    -0.02100
C1106       C  0.87054747  0.11274565  0.68779465     0.02900
C1107       C  0.79069575  0.05544795  0.72713404     0.37500
C1108       C  0.93494312  0.09366452  0.66965035     0.37500
C1109       C  0.87942353  0.15016999  0.67500271     0.36000
C1110       C  0.84754785  0.00070666  0.72210500     0.36000
N1111       N  0.88683230  0.17999013  0.66489727    -0.38900
N1112       N  0.84147593  0.97031292  0.73138682    -0.38900
N1113       N  0.96417749  0.10084501  0.65780498    -0.38300
N1114       N  0.76166926  0.04607473  0.73793329    -0.38300
C1115       C  0.63666852  0.10091406  0.91076176    -0.05000
C1116       C  0.60918822  0.07272252  0.90657440    -0.02100
C1117       C  0.60518168  0.04419559  0.93373280     0.02900
C1118       C  0.62847780  0.04344928  0.96567871    -0.05000
C1119       C  0.65538797  0.07210544  0.97028143    -0.02100
C1120       C  0.65971443  0.10032538  0.94298356     0.02900
C1121       C  0.58425425  0.07344431  0.87469566     0.37500
C1122       C  0.67812023  0.07335975  0.00380384     0.37500
C1123       C  0.68896495  0.12807041  0.94781821     0.36000
C1124       C  0.57760944  0.01498848  0.92810383     0.36000
N1125       N  0.71226952  0.15017652  0.95178597    -0.38900
N1126       N  0.55558032  0.99170828  0.92363867    -0.38900
N1127       N  0.69616799  0.07447638  0.03056241    -0.38300
N1128       N  0.56431688  0.07402371  0.84929306    -0.38300
loop_ 
_geom_bond_atom_site_label_1 
_geom_bond_atom_site_label_2 
_geom_bond_distance 
_geom_bond_site_symmetry_2 
_ccdc_geom_bond_type 
C1            N2   1.365       .  A
C1            N6   1.370       .  A
C1         C1115   1.505       .  S
N2            C3   1.357       .  A
C3            N4   1.354       .  A
C3           C21   1.468       .  S
N4            C5   1.356       .  A
C5            N6   1.364       .  A
C5           C33   1.474       .  S
C7            N8   1.368       .  A
C7           N12   1.367       .  A
C7         C1101   1.519       .  S
N8            C9   1.361       .  A
C9           N10   1.355       .  A
C9           C29   1.473       .  S
N10          C11   1.356       .  A
C11          N12   1.360       .  A
C11          C35   1.471       .  S
C13          N14   1.370       .  A
C13          N18   1.368       .  A
C13        C1087   1.506       .  S
N14          C15   1.363       .  A
C15          N16   1.354       .  A
C15          C23   1.475       .  S
N16          C17   1.354       .  A
C17          N18   1.363       .  A
C17          C27   1.472       .  S
C19          N20   1.363       .  A
C19          N24   1.369       .  A
C19        C1076   1.502       .  S
N20          C21   1.356       .  A
C21          N22   1.355       .  A
N22          C23   1.358       .  A
C23          N24   1.366       .  A
C25          N26   1.367       .  A
C25          N30   1.366       .  A
C25        C1059   1.503       .  S
N26          C27   1.361       .  A
C27          N28   1.357       .  A
N28          C29   1.356       .  A
C29          N30   1.361       .  A
C31          N32   1.371       .  A
C31          N36   1.369       .  A
C31        C1045   1.510       .  S
N32          C33   1.363       .  A
C33          N34   1.353       .  A
N34          C35   1.353       .  A
C35          N36   1.362       .  A
C37          N38   1.368       .  A
C37          N42   1.370       .  A
C37        C1034   1.511       .  S
N38          C39   1.361       .  A
C39          N40   1.353       .  A
C39          C59   1.471       .  S
N40          C41   1.355       .  A
C41          N42   1.363       .  A
C41          C69   1.475       .  S
C43          N44   1.367       .  A
C43          N48   1.364       .  A
C43        C1017   1.497       .  S
N44          C45   1.362       .  A
C45          N46   1.356       .  A
C45          C63   1.472       .  S
N46          C47   1.355       .  A
C47          N48   1.358       .  A
C47          C71   1.467       .  S
C49          N50   1.369       .  A
C49          N54   1.369       .  A
C49        C1003   1.510       .  S
N50          C51   1.363       .  A
C51          N52   1.354       .  A
C51          C65   1.473       .  S
N52          C53   1.353       .  A
C53          N54   1.361       .  A
C53          C57   1.473       .  S
C55          N56   1.366       .  A
C55          N60   1.363       .  A
C55         C992   1.504       .  S
N56          C57   1.363       .  A
C57          N58   1.360       .  A
N58          C59   1.358       .  A
C59          N60   1.356       .  A
C61          N62   1.366       .  A
C61          N66   1.369       .  A
C61         C975   1.507       .  S
N62          C63   1.359       .  A
C63          N64   1.355       .  A
N64          C65   1.356       .  A
C65          N66   1.364       .  A
C67          N68   1.372       .  A
C67          N72   1.365       .  A
C67         C964   1.505       .  S
N68          C69   1.367       .  A
C69          N70   1.355       .  A
N70          C71   1.351       .  A
C71          N72   1.357       .  A
C73          N74   1.366       .  A
C73          N78   1.366       .  A
C73         C947   1.500       .  S
N74          C75   1.359       .  A
C75          N76   1.356       .  A
C75         C105   1.471       .  S
N76          C77   1.356       .  A
C77          N78   1.359       .  A
C77          C93   1.470       .  S
C79          N80   1.366       .  A
C79          N84   1.367       .  A
C79         C936   1.499       .  S
N80          C81   1.361       .  A
C81          N82   1.356       .  A
C81         C107   1.471       .  S
N82          C83   1.356       .  A
C83          N84   1.363       .  A
C83         C101   1.473       .  S
C85          N86   1.365       .  A
C85          N90   1.366       .  A
C85         C922   1.491       .  S
N86          C87   1.360       .  A
C87          N88   1.355       .  A
C87          C99   1.470       .  S
N88          C89   1.356       .  A
C89          N90   1.362       .  A
C89          C95   1.471       .  S
C91          N92   1.368       .  A
C91          N96   1.370       .  A
C91         C905   1.512       .  S
N92          C93   1.360       .  A
C93          N94   1.351       .  A
N94          C95   1.353       .  A
C95          N96   1.365       .  A
C97          N98   1.365       .  A
C97         N102   1.368       .  A
C97         C891   1.511       .  S
N98          C99   1.357       .  A
C99         N100   1.355       .  A
N100        C101   1.357       .  A
C101        N102   1.364       .  A
C103        N104   1.366       .  A
C103        N108   1.368       .  A
C103        C877   1.511       .  S
N104        C105   1.358       .  A
C105        N106   1.353       .  A
N106        C107   1.356       .  A
C107        N108   1.363       .  A
C109        N110   1.370       .  A
C109        N114   1.365       .  A
C109        C863   1.505       .  S
N110        C111   1.366       .  A
C111        N112   1.356       .  A
C111        C141   1.476       .  S
N112        C113   1.354       .  A
C113        N114   1.357       .  A
C113        C129   1.469       .  S
C115        N116   1.366       .  A
C115        N120   1.367       .  A
C115        C849   1.504       .  S
N116        C117   1.362       .  A
C117        N118   1.357       .  A
C117        C135   1.473       .  S
N118        C119   1.357       .  A
C119        N120   1.362       .  A
C119        C143   1.476       .  S
C121        N122   1.369       .  A
C121        N126   1.369       .  A
C121        C838   1.508       .  S
N122        C123   1.362       .  A
C123        N124   1.353       .  A
C123        C131   1.472       .  S
N124        C125   1.354       .  A
C125        N126   1.363       .  A
C125        C137   1.473       .  S
C127        N128   1.366       .  A
C127        N132   1.368       .  A
C127        C821   1.505       .  S
N128        C129   1.360       .  A
C129        N130   1.355       .  A
N130        C131   1.355       .  A
C131        N132   1.362       .  A
C133        N134   1.369       .  A
C133        N138   1.368       .  A
C133        C810   1.521       .  S
N134        C135   1.362       .  A
C135        N136   1.354       .  A
N136        C137   1.355       .  A
C137        N138   1.361       .  A
C139        N140   1.369       .  A
C139        N144   1.369       .  A
C139        C793   1.517       .  S
N140        C141   1.361       .  A
C141        N142   1.355       .  A
N142        C143   1.355       .  A
C143        N144   1.363       .  A
C145        N146   1.367       .  A
C145        N150   1.367       .  A
C145        C782   1.508       .  S
N146        C147   1.361       .  A
C147        N148   1.354       .  A
C147        C179   1.469       .  S
N148        C149   1.355       .  A
C149        N150   1.362       .  A
C149        C165   1.469       .  S
C151        N152   1.369       .  A
C151        N156   1.366       .  A
C151        C768   1.504       .  S
N152        C153   1.363       .  A
C153        N154   1.353       .  A
C153        C173   1.472       .  S
N154        C155   1.352       .  A
C155        N156   1.358       .  A
C155        C177   1.465       .  S
C157        N158   1.367       .  A
C157        N162   1.368       .  A
C157        C754   1.513       .  S
N158        C159   1.360       .  A
C159        N160   1.356       .  A
C159        C167   1.472       .  S
N160        C161   1.355       .  A
C161        N162   1.361       .  A
C161        C171   1.474       .  S
C163        N164   1.366       .  A
C163        N168   1.368       .  A
C163        C740   1.503       .  S
N164        C165   1.359       .  A
C165        N166   1.354       .  A
N166        C167   1.355       .  A
C167        N168   1.362       .  A
C169        N170   1.367       .  A
C169        N174   1.366       .  A
C169        C723   1.504       .  S
N170        C171   1.362       .  A
C171        N172   1.357       .  A
N172        C173   1.357       .  A
C173        N174   1.359       .  A
C175        N176   1.365       .  A
C175        N180   1.369       .  A
C175        C712   1.510       .  S
N176        C177   1.358       .  A
C177        N178   1.353       .  A
N178        C179   1.353       .  A
C179        N180   1.363       .  A
C181        N182   1.369       .  A
C181        N186   1.367       .  A
C181        C695   1.514       .  S
N182        C183   1.362       .  A
C183        N184   1.353       .  A
C183        C215   1.471       .  S
N184        C185   1.353       .  A
C185        N186   1.359       .  A
C185        C201   1.469       .  S
C187        N188   1.367       .  A
C187        N192   1.366       .  A
C187        C681   1.508       .  S
N188        C189   1.362       .  A
C189        N190   1.356       .  A
C189        C207   1.472       .  S
N190        C191   1.355       .  A
C191        N192   1.360       .  A
C191        C213   1.472       .  S
C193        N194   1.366       .  A
C193        N198   1.366       .  A
C193        C670   1.502       .  S
N194        C195   1.361       .  A
C195        N196   1.355       .  A
C195        C203   1.470       .  S
N196        C197   1.355       .  A
C197        N198   1.360       .  A
C197        C209   1.468       .  S
C199        N200   1.367       .  A
C199        N204   1.368       .  A
C199        C653   1.511       .  S
N200        C201   1.360       .  A
C201        N202   1.354       .  A
N202        C203   1.353       .  A
C203        N204   1.360       .  A
C205        N206   1.369       .  A
C205        N210   1.367       .  A
C205        C639   1.513       .  S
N206        C207   1.362       .  A
C207        N208   1.353       .  A
N208        C209   1.353       .  A
C209        N210   1.360       .  A
C211        N212   1.367       .  A
C211        N216   1.366       .  A
C211        C628   1.501       .  S
N212        C213   1.362       .  A
C213        N214   1.356       .  A
N214        C215   1.356       .  A
C215        N216   1.359       .  A
C217        N218   1.368       .  A
C217        N222   1.365       .  A
C217        C611   1.500       .  S
N218        C219   1.363       .  A
C219        N220   1.354       .  A
C219        C249   1.471       .  S
N220        C221   1.353       .  A
C221        N222   1.359       .  A
C221        C239   1.467       .  S
C223        N224   1.366       .  A
C223        N228   1.366       .  A
C223        C600   1.501       .  S
N224        C225   1.360       .  A
C225        N226   1.356       .  A
C225        C251   1.470       .  S
N226        C227   1.356       .  A
C227        N228   1.361       .  A
C227        C243   1.470       .  S
C229        N230   1.368       .  A
C229        N234   1.368       .  A
C229        C583   1.506       .  S
N230        C231   1.362       .  A
C231        N232   1.354       .  A
C231        C245   1.471       .  S
N232        C233   1.354       .  A
C233        N234   1.361       .  A
C233        C237   1.471       .  S
C235        N236   1.366       .  A
C235        N240   1.364       .  A
C235        C572   1.495       .  S
N236        C237   1.361       .  A
C237        N238   1.356       .  A
N238        C239   1.356       .  A
C239        N240   1.357       .  A
C241        N242   1.365       .  A
C241        N246   1.366       .  A
C241        C555   1.493       .  S
N242        C243   1.361       .  A
C243        N244   1.355       .  A
N244        C245   1.356       .  A
C245        N246   1.361       .  A
C247        N248   1.368       .  A
C247        N252   1.368       .  A
C247        C541   1.509       .  S
N248        C249   1.362       .  A
C249        N250   1.354       .  A
N250        C251   1.354       .  A
C251        N252   1.361       .  A
C253        N254   1.366       .  A
C253        N258   1.367       .  A
C253        C527   1.506       .  S
N254        C255   1.358       .  A
C255        N256   1.356       .  A
C255        C287   1.470       .  S
N256        C257   1.357       .  A
C257        N258   1.361       .  A
C257        C281   1.471       .  S
C259        N260   1.369       .  A
C259        N264   1.367       .  A
C259        C513   1.508       .  S
N260        C261   1.363       .  A
C261        N262   1.354       .  A
C261        C285   1.470       .  S
N262        C263   1.352       .  A
C263        N264   1.359       .  A
C263        C275   1.469       .  S
C265        N266   1.371       .  A
C265        N270   1.367       .  A
C265        C502   1.513       .  S
N266        C267   1.366       .  A
C267        N268   1.355       .  A
C267        C279   1.475       .  S
N268        C269   1.353       .  A
C269        N270   1.360       .  A
C269        C273   1.470       .  S
C271        N272   1.365       .  A
C271        N276   1.366       .  A
C271        C485   1.501       .  S
N272        C273   1.360       .  A
C273        N274   1.356       .  A
N274        C275   1.356       .  A
C275        N276   1.360       .  A
C277        N278   1.368       .  A
C277        N282   1.365       .  A
C277        C471   1.497       .  S
N278        C279   1.364       .  A
C279        N280   1.356       .  A
N280        C281   1.355       .  A
C281        N282   1.361       .  A
C283        N284   1.367       .  A
C283        N288   1.366       .  A
C283        C457   1.499       .  S
N284        C285   1.360       .  A
C285        N286   1.355       .  A
N286        C287   1.355       .  A
C287        N288   1.360       .  A
O289       Cu297   2.021       .  S
O289        C299   1.279       .  A
O290       Cu297   2.017       .  S
O290        C300   1.279       .  A
O291       Cu297   2.016       .  S
O291        C301   1.279       .  A
O292       Cu297   2.014       .  S
O292        C302   1.279       .  A
O293       Cu298   2.027       .  S
O293        C302   1.280       .  A
O294       Cu298   2.023       .  S
O294        C301   1.279       .  A
O295       Cu298   2.027       .  S
O295        C300   1.280       .  A
O296       Cu298   2.024       .  S
O296        C299   1.279       .  A
Cu297      Cu298   2.369       .  S
C299        C656   1.493       .  S
C300        C460   1.498       .  S
C301        C569   1.501       .  S
C302        C737   1.497       .  S
O303       Cu311   2.017       .  S
O303        C313   1.278       .  A
O304       Cu311   2.020       .  S
O304        C314   1.279       .  A
O305       Cu311   2.027       .  S
O305        C315   1.280       .  A
O306       Cu311   2.019       .  S
O306        C316   1.279       .  A
O307       Cu312   2.036       .  S
O307        C316   1.280       .  A
O308       Cu312   2.039       .  S
O308        C315   1.282       .  A
O309       Cu312   2.040       .  S
O309        C314   1.281       .  A
O310       Cu312   2.035       .  S
O310        C313   1.281       .  A
Cu311      Cu312   2.362       .  S
C313        C709   1.498       .  S
C314        C961   1.504       .  S
C315        C474   1.525       .  S
C316        C894   1.498       .  S
O317       Cu325   2.045       .  S
O317        C327   1.282       .  A
O318       Cu325   2.039       .  S
O318        C328   1.281       .  A
O319       Cu325   2.039       .  S
O319        C329   1.281       .  A
O320       Cu325   2.035       .  S
O320        C330   1.280       .  A
O321       Cu326   2.022       .  S
O321        C330   1.280       .  A
O322       Cu326   2.019       .  S
O322        C329   1.279       .  A
O323       Cu326   2.014       .  S
O323        C328   1.278       .  A
O324       Cu326   2.018       .  S
O324        C327   1.279       .  A
Cu325      Cu326   2.360       .  S
C327        C978   1.511       .  S
C328        C558   1.523       .  S
C329       C1048   1.503       .  S
C330        C488   1.502       .  S
O331       Cu339   2.023       .  S
O331        C341   1.279       .  A
O332       Cu339   2.022       .  S
O332        C342   1.278       .  A
O333       Cu339   2.033       .  S
O333        C343   1.281       .  A
O334       Cu339   2.037       .  S
O334        C344   1.281       .  A
O335       Cu340   2.016       .  S
O335        C344   1.278       .  A
O336       Cu340   2.017       .  S
O336        C343   1.279       .  A
O337       Cu340   2.029       .  S
O337        C342   1.280       .  A
O338       Cu340   2.029       .  S
O338        C341   1.281       .  A
Cu339      Cu340   2.368       .  S
C341       C1062   1.501       .  S
C342        C642   1.495       .  S
C343        C824   1.501       .  S
C344        C544   1.502       .  S
O345       Cu353   2.044       .  S
O345        C355   1.282       .  A
O346       Cu353   2.045       .  S
O346        C356   1.282       .  A
O347       Cu353   2.036       .  S
O347        C357   1.281       .  A
O348       Cu353   2.034       .  S
O348        C358   1.280       .  A
O349       Cu354   2.010       .  S
O349        C358   1.278       .  A
O350       Cu354   2.009       .  S
O350        C357   1.278       .  A
O351       Cu354   2.011       .  S
O351        C356   1.278       .  A
O352       Cu354   2.012       .  S
O352        C355   1.278       .  A
Cu353      Cu354   2.369       .  S
C355        C726   1.502       .  S
C356        C796   1.497       .  S
C357        C625   1.498       .  S
C358        C880   1.495       .  S
O359       Cu367   2.021       .  S
O359        C369   1.279       .  A
O360       Cu367   2.015       .  S
O360        C370   1.279       .  A
O361       Cu367   2.017       .  S
O361        C371   1.279       .  A
O362       Cu367   2.017       .  S
O362        C372   1.278       .  A
O363       Cu368   2.031       .  S
O363        C372   1.280       .  A
O364       Cu368   2.025       .  S
O364        C371   1.279       .  A
O365       Cu368   2.037       .  S
O365        C370   1.281       .  A
O366       Cu368   2.043       .  S
O366        C369   1.282       .  A
Cu367      Cu368   2.368       .  S
C369        C908   1.505       .  S
C370       C1073   1.506       .  S
C371        C989   1.492       .  S
C372        C807   1.493       .  S
O373       Cu381   2.015       .  S
O373        C383   1.279   1_565  A
O374       Cu381   2.016   1_455  S
O374        C384   1.279       .  A
O375       Cu381   2.018       .  S
O375        C385   1.279       .  A
O376       Cu381   2.023   1_455  S
O376        C386   1.280       .  A
O377       Cu382   2.040   1_455  S
O377        C386   1.281       .  A
O378       Cu382   2.036       .  S
O378        C385   1.281       .  A
O379       Cu382   2.031   1_455  S
O379        C384   1.280       .  A
O380       Cu382   2.027       .  S
O380        C383   1.280   1_565  A
Cu381      Cu382   2.368       .  S
C383        C597   1.499       .  S
C384        C765   1.498       .  S
C385        C684   1.501       .  S
C386        C499   1.504   1_565  S
O387       Cu395   2.035   1_455  S
O387        C397   1.281       .  A
O388       Cu395   2.030   1_545  S
O388        C398   1.280       .  A
O389       Cu395   2.034   1_445  S
O389        C399   1.280       .  A
O390       Cu395   2.041       .  S
O390        C400   1.282       .  A
O391       Cu396   2.015       .  S
O391        C400   1.279       .  A
O392       Cu396   2.020   1_445  S
O392        C399   1.280       .  A
O393       Cu396   2.018   1_545  S
O393        C398   1.278       .  A
O394       Cu396   2.022   1_455  S
O394        C397   1.280       .  A
Cu395      Cu396   2.365       .  S
C397        C933   1.513       .  S
C398       C1104   1.492       .  S
C399       C1020   1.504       .  S
C400        C866   1.506       .  S
O401       Cu409   2.014       .  S
O401        C411   1.279   1_554  A
O402       Cu409   2.015       .  S
O402        C412   1.278       .  A
O403       Cu409   2.005       .  S
O403        C413   1.277       .  A
O404       Cu409   1.999   1_556  S
O404        C414   1.277       .  A
O405       Cu410   2.038   1_556  S
O405        C414   1.281       .  A
O406       Cu410   2.037       .  S
O406        C413   1.281       .  A
O407       Cu410   2.036       .  S
O407        C412   1.280       .  A
O408       Cu410   2.033   1_556  S
O408        C411   1.280       .  A
Cu409      Cu410   2.370       .  S
C411       C1006   1.498   1_565  S
C412        C751   1.494       .  S
C413        C516   1.497   1_565  S
C414        C950   1.494       .  S
O415       Cu423   2.010   1_455  S
O415        C425   1.278       .  A
O416       Cu423   2.014       .  S
O416        C426   1.278       .  A
O417       Cu423   2.019   1_455  S
O417        C427   1.279   1_554  A
O418       Cu423   2.023       .  S
O418        C428   1.280       .  A
O419       Cu424   2.036       .  S
O419        C428   1.281       .  A
O420       Cu424   2.039   1_455  S
O420        C427   1.281   1_554  A
O421       Cu424   2.048       .  S
O421        C426   1.283       .  A
O422       Cu424   2.038   1_455  S
O422        C425   1.281       .  A
Cu423      Cu424   2.366       .  S
C425        C530   1.498       .  S
C426       C1090   1.510   1_554  S
C427       C1031   1.498       .  S
C428        C614   1.508       .  S
O429       Cu437   2.014       .  S
O429        C439   1.278       .  A
O430       Cu437   2.018       .  S
O430        C440   1.279   1_564  A
O431       Cu437   2.022       .  S
O431        C441   1.280   1_565  A
O432       Cu437   2.020       .  S
O432        C442   1.279   1_554  A
O433       Cu438   2.041       .  S
O433        C442   1.282   1_554  A
O434       Cu438   2.036       .  S
O434        C441   1.281   1_565  A
O435       Cu438   2.032   1_545  S
O435        C440   1.281   1_554  A
O436       Cu438   2.032       .  S
O436        C439   1.280       .  A
Cu437      Cu438   2.367       .  S
C439        C698   1.493       .  S
C440       C1118   1.502       .  S
C441        C586   1.503       .  S
C442        C852   1.506       .  S
O443       Cu451   2.022       .  S
O443        C453   1.280       .  A
O444       Cu451   2.020   1_456  S
O444        C454   1.279       .  A
O445       Cu451   2.026   1_556  S
O445        C455   1.280       .  A
O446       Cu451   2.026   1_455  S
O446        C456   1.279       .  A
O447       Cu452   2.032   1_455  S
O447        C456   1.280       .  A
O448       Cu452   2.037   1_556  S
O448        C455   1.281       .  A
O449       Cu452   2.029   1_456  S
O449        C454   1.280       .  A
O450       Cu452   2.027       .  S
O450        C453   1.280       .  A
Cu451      Cu452   2.360       .  S
C453        C667   1.503       .  S
C454        C919   1.524       .  S
C455        C835   1.508       .  S
C456        C779   1.501       .  S
C457        C458   1.417       .  A
C457        C462   1.415       .  A
C458        C459   1.415       .  A
C458        C463   1.452       .  S
C459        C460   1.415       .  A
C459        C466   1.452       .  S
C460        C461   1.416       .  A
C461        C462   1.417       .  A
C461        C464   1.451       .  S
C462        C465   1.451       .  S
C463        N470   1.158       .  T
C464        N469   1.157       .  T
C465        N467   1.157       .  T
C466        N468   1.157       .  T
C471        C472   1.408       .  A
C471        C476   1.410       .  A
C472        C473   1.420       .  A
C472        C477   1.451       .  S
C473        C474   1.428       .  A
C473        C480   1.450       .  S
C474        C475   1.429       .  A
C475        C476   1.419       .  A
C475        C478   1.451       .  S
C476        C479   1.452       .  S
C477        N484   1.157       .  T
C478        N483   1.158       .  T
C479        N481   1.157       .  T
C480        N482   1.157       .  T
C485        C486   1.416       .  A
C485        C490   1.417       .  A
C486        C487   1.419       .  A
C486        C491   1.451       .  S
C487        C488   1.416       .  A
C487        C494   1.450       .  S
C488        C489   1.416       .  A
C489        C490   1.414       .  A
C489        C492   1.450       .  S
C490        C493   1.453       .  S
C491        N498   1.157       .  T
C492        N497   1.157       .  T
C493        N495   1.158       .  T
C494        N496   1.157       .  T
C499        C500   1.414       .  A
C499        C504   1.415       .  A
C500        C501   1.417       .  A
C500        C505   1.452   1_545  S
C501        C502   1.422       .  A
C501        C508   1.452       .  S
C502        C503   1.419       .  A
C503        C504   1.421       .  A
C503        C506   1.450       .  S
C504        C507   1.450       .  S
C505        N512   1.157       .  T
C506        N511   1.157       .  T
C507        N509   1.157       .  T
C508        N510   1.158       .  T
C513        C514   1.421       .  A
C513        C518   1.420       .  A
C514        C515   1.414       .  A
C514        C519   1.452       .  S
C515        C516   1.413       .  A
C515        C522   1.453   1_545  S
C516        C517   1.415       .  A
C517        C518   1.419       .  A
C517        C520   1.451       .  S
C518        C521   1.450       .  S
C519        N526   1.158       .  T
C520        N525   1.157       .  T
C521        N523   1.157       .  T
C522        N524   1.157       .  T
C527        C528   1.421       .  A
C527        C532   1.419       .  A
C528        C529   1.413       .  A
C528        C533   1.452       .  S
C529        C530   1.413       .  A
C529        C536   1.453       .  S
C530        C531   1.415       .  A
C531        C532   1.419       .  A
C531        C534   1.450       .  S
C532        C535   1.451       .  S
C533        N540   1.157       .  T
C534        N539   1.157       .  T
C535        N537   1.158       .  T
C536        N538   1.157       .  T
C541        C542   1.420       .  A
C541        C546   1.419       .  A
C542        C543   1.417       .  A
C542        C547   1.452       .  S
C543        C544   1.415       .  A
C543        C550   1.452       .  S
C544        C545   1.415       .  A
C545        C546   1.418       .  A
C545        C548   1.451       .  S
C546        C549   1.451       .  S
C547        N554   1.158       .  T
C548        N553   1.157       .  T
C549        N551   1.157       .  T
C550        N552   1.158       .  T
C555        C556   1.408       .  A
C555        C560   1.408       .  A
C556        C557   1.420       .  A
C556        C561   1.451       .  S
C557        C558   1.428       .  A
C557        C564   1.450       .  S
C558        C559   1.430       .  A
C559        C560   1.416       .  A
C559        C562   1.452       .  S
C560        C563   1.453       .  S
C561        N568   1.157       .  T
C562        N567   1.158       .  T
C563        N565   1.157       .  T
C564        N566   1.158       .  T
C569        C570   1.417       .  A
C569        C574   1.419       .  A
C570        C571   1.413       .  A
C570        C575   1.452       .  S
C571        C572   1.416       .  A
C571        C578   1.453       .  S
C572        C573   1.413       .  A
C573        C574   1.417       .  A
C573        C576   1.451       .  S
C574        C577   1.451       .  S
C575        N582   1.157       .  T
C576        N581   1.157       .  T
C577        N579   1.157       .  T
C578        N580   1.157       .  T
C583        C584   1.419       .  A
C583        C588   1.418       .  A
C584        C585   1.417       .  A
C584        C589   1.451       .  S
C585        C586   1.416       .  A
C585        C592   1.452   1_545  S
C586        C587   1.416       .  A
C587        C588   1.419       .  A
C587        C590   1.450       .  S
C588        C591   1.451       .  S
C589        N596   1.158       .  T
C590        N595   1.157       .  T
C591        N593   1.157       .  T
C592        N594   1.157       .  T
C597        C598   1.415       .  A
C597        C602   1.417       .  A
C598        C599   1.414       .  A
C598        C603   1.452       .  S
C599        C600   1.418       .  A
C599        C606   1.452       .  S
C600        C601   1.416       .  A
C601        C602   1.417       .  A
C601        C604   1.451       .  S
C602        C605   1.451   1_545  S
C603        N610   1.157       .  T
C604        N609   1.157       .  T
C605        N607   1.157       .  T
C606        N608   1.157       .  T
C611        C612   1.414       .  A
C611        C616   1.415       .  A
C612        C613   1.419       .  A
C612        C617   1.451       .  S
C613        C614   1.419       .  A
C613        C620   1.450       .  S
C614        C615   1.420       .  A
C615        C616   1.416       .  A
C615        C618   1.451       .  S
C616        C619   1.452       .  S
C617        N624   1.157       .  T
C618        N623   1.157       .  T
C619        N621   1.157       .  T
C620        N622   1.157       .  T
C625        C626   1.416       .  A
C625        C630   1.415       .  A
C626        C627   1.419       .  A
C626        C631   1.451       .  S
C627        C628   1.417       .  A
C627        C634   1.451       .  S
C628        C629   1.419       .  A
C629        C630   1.413       .  A
C629        C632   1.452       .  S
C630        C633   1.453       .  S
C631        N638   1.157       .  T
C632        N637   1.158       .  T
C633        N635   1.157       .  T
C634        N636   1.157       .  T
C639        C640   1.425       .  A
C639        C644   1.421       .  A
C640        C641   1.417       .  A
C640        C645   1.451       .  S
C641        C642   1.411       .  A
C641        C648   1.452       .  S
C642        C643   1.412       .  A
C643        C644   1.417       .  A
C643        C646   1.451       .  S
C644        C647   1.450       .  S
C645        N652   1.158       .  T
C646        N651   1.157       .  T
C647        N649   1.157       .  T
C648        N650   1.157       .  T
C653        C654   1.425       .  A
C653        C658   1.422       .  A
C654        C655   1.416       .  A
C654        C659   1.451       .  S
C655        C656   1.411       .  A
C655        C662   1.453       .  S
C656        C657   1.411       .  A
C657        C658   1.416       .  A
C657        C660   1.451       .  S
C658        C661   1.451       .  S
C659        N666   1.158       .  T
C660        N665   1.157       .  T
C661        N663   1.157       .  T
C662        N664   1.157       .  T
C667        C668   1.418       .  A
C667        C672   1.417       .  A
C668        C669   1.418       .  A
C668        C673   1.451       .  S
C669        C670   1.415       .  A
C669        C676   1.451       .  S
C670        C671   1.418       .  A
C671        C672   1.416       .  A
C671        C674   1.452       .  S
C672        C675   1.452       .  S
C673        N680   1.157       .  T
C674        N679   1.158       .  T
C675        N677   1.157       .  T
C676        N678   1.157       .  T
C681        C682   1.421       .  A
C681        C686   1.419       .  A
C682        C683   1.416       .  A
C682        C687   1.452       .  S
C683        C684   1.415       .  A
C683        C690   1.453       .  S
C684        C685   1.415       .  A
C685        C686   1.419       .  A
C685        C688   1.451       .  S
C686        C689   1.450       .  S
C687        N694   1.158       .  T
C688        N693   1.157       .  T
C689        N691   1.157       .  T
C690        N692   1.157       .  T
C695        C696   1.424       .  A
C695        C700   1.426       .  A
C696        C697   1.419       .  A
C696        C701   1.451       .  S
C697        C698   1.411       .  A
C697        C704   1.451       .  S
C698        C699   1.409       .  A
C699        C700   1.415       .  A
C699        C702   1.453       .  S
C700        C703   1.451       .  S
C701        N708   1.158       .  T
C702        N707   1.157       .  T
C703        N705   1.158       .  T
C704        N706   1.157       .  T
C709        C710   1.413       .  A
C709        C714   1.413       .  A
C710        C711   1.418       .  A
C710        C715   1.450       .  S
C711        C712   1.420       .  A
C711        C718   1.451       .  S
C712        C713   1.423       .  A
C713        C714   1.416       .  A
C713        C716   1.452       .  S
C714        C717   1.453       .  S
C715        N722   1.157       .  T
C716        N721   1.158       .  T
C717        N719   1.157       .  T
C718        N720   1.157       .  T
C723        C724   1.416       .  A
C723        C728   1.418       .  A
C724        C725   1.419       .  A
C724        C729   1.450       .  S
C725        C726   1.416       .  A
C725        C732   1.450       .  S
C726        C727   1.416       .  A
C727        C728   1.415       .  A
C727        C730   1.452       .  S
C728        C731   1.452       .  S
C729        N736   1.157       .  T
C730        N735   1.157       .  T
C731        N733   1.158       .  T
C732        N734   1.157       .  T
C737        C738   1.414       .  A
C737        C742   1.415       .  A
C738        C739   1.414       .  A
C738        C743   1.453       .  S
C739        C740   1.420       .  A
C739        C746   1.452       .  S
C740        C741   1.417       .  A
C741        C742   1.417       .  A
C741        C744   1.451       .  S
C742        C745   1.451       .  S
C743        N750   1.157       .  T
C744        N749   1.157       .  T
C745        N747   1.157       .  T
C746        N748   1.158       .  T
C751        C752   1.411       .  A
C751        C756   1.410       .  A
C752        C753   1.418       .  A
C752        C757   1.451       .  S
C753        C754   1.422       .  A
C753        C760   1.450       .  S
C754        C755   1.425       .  A
C755        C756   1.416       .  A
C755        C758   1.451       .  S
C756        C759   1.453       .  S
C757        N764   1.157       .  T
C758        N763   1.158       .  T
C759        N761   1.157       .  T
C760        N762   1.157       .  T
C765        C766   1.415       .  A
C765        C770   1.414       .  A
C766        C767   1.419       .  A
C766        C771   1.450       .  S
C767        C768   1.417       .  A
C767        C774   1.450       .  S
C768        C769   1.420       .  A
C769        C770   1.414       .  A
C769        C772   1.452       .  S
C770        C773   1.453       .  S
C771        N778   1.157       .  T
C772        N777   1.158       .  T
C773        N775   1.157   1_455  T
C774        N776   1.157       .  T
C779        C780   1.414       .  A
C779        C784   1.415       .  A
C780        C781   1.418       .  A
C780        C785   1.451       .  S
C781        C782   1.418       .  A
C781        C788   1.451       .  S
C782        C783   1.421       .  A
C783        C784   1.418       .  A
C783        C786   1.451       .  S
C784        C787   1.452       .  S
C785        N792   1.157   1_455  T
C786        N791   1.158       .  T
C787        N789   1.157       .  T
C788        N790   1.157       .  T
C793        C794   1.424       .  A
C793        C798   1.424       .  A
C794        C795   1.421       .  A
C794        C799   1.450       .  S
C795        C796   1.412       .  A
C795        C802   1.451       .  S
C796        C797   1.411       .  A
C797        C798   1.416       .  A
C797        C800   1.453       .  S
C798        C801   1.451       .  S
C799        N806   1.158       .  T
C800        N805   1.157       .  T
C801        N803   1.158       .  T
C802        N804   1.157       .  T
C807        C808   1.409       .  A
C807        C812   1.409       .  A
C808        C809   1.417       .  A
C808        C813   1.453       .  S
C809        C810   1.428       .  A
C809        C816   1.451       .  S
C810        C811   1.427       .  A
C811        C812   1.419       .  A
C811        C814   1.450       .  S
C812        C815   1.452       .  S
C813        N820   1.158       .  T
C814        N819   1.157       .  T
C815        N817   1.157       .  T
C816        N818   1.158       .  T
C821        C822   1.417       .  A
C821        C826   1.419       .  A
C822        C823   1.418       .  A
C822        C827   1.451       .  S
C823        C824   1.416       .  A
C823        C830   1.451       .  S
C824        C825   1.416       .  A
C825        C826   1.416       .  A
C825        C828   1.452       .  S
C826        C829   1.452       .  S
C827        N834   1.157       .  T
C828        N833   1.157       .  T
C829        N831   1.158       .  T
C830        N832   1.157       .  T
C835        C836   1.418       .  A
C835        C840   1.417       .  A
C836        C837   1.420       .  A
C836        C841   1.451       .  S
C837        C838   1.417       .  A
C837        C844   1.451       .  S
C838        C839   1.418       .  A
C839        C840   1.418       .  A
C839        C842   1.451       .  S
C840        C843   1.452       .  S
C841        N848   1.157       .  T
C842        N847   1.157       .  T
C843        N845   1.157   1_556  T
C844        N846   1.157       .  T
C849        C850   1.416       .  A
C849        C854   1.417       .  A
C850        C851   1.420       .  A
C850        C855   1.450       .  S
C851        C852   1.418       .  A
C851        C858   1.450       .  S
C852        C853   1.417       .  A
C853        C854   1.416       .  A
C853        C856   1.452       .  S
C854        C857   1.452       .  S
C855        N862   1.157       .  T
C856        N861   1.157       .  T
C857        N859   1.157       .  T
C858        N860   1.157   1_556  T
C863        C864   1.419       .  A
C863        C868   1.415       .  A
C864        C865   1.415       .  A
C864        C869   1.452       .  S
C865        C866   1.417       .  A
C865        C872   1.452       .  S
C866        C867   1.419       .  A
C867        C868   1.421       .  A
C867        C870   1.450       .  S
C868        C871   1.450       .  S
C869        N876   1.158       .  T
C870        N875   1.157       .  T
C871        N873   1.157       .  T
C872        N874   1.157       .  T
C877        C878   1.422       .  A
C877        C882   1.423       .  A
C878        C879   1.420       .  A
C878        C883   1.450       .  S
C879        C880   1.413       .  A
C879        C886   1.451       .  S
C880        C881   1.412       .  A
C881        C882   1.413       .  A
C881        C884   1.453       .  S
C882        C885   1.452       .  S
C883        N890   1.158       .  T
C884        N889   1.158       .  T
C885        N887   1.157       .  T
C886        N888   1.157       .  T
C891        C892   1.421       .  A
C891        C896   1.423       .  A
C892        C893   1.420       .  A
C892        C897   1.450       .  S
C893        C894   1.414       .  A
C893        C900   1.451       .  S
C894        C895   1.412       .  A
C895        C896   1.415       .  A
C895        C898   1.453       .  S
C896        C899   1.452       .  S
C897        N904   1.158       .  T
C898        N903   1.158       .  T
C899        N901   1.157       .  T
C900        N902   1.157       .  T
C905        C906   1.420       .  A
C905        C910   1.420       .  A
C906        C907   1.422       .  A
C906        C911   1.450       .  S
C907        C908   1.416       .  A
C907        C914   1.451       .  S
C908        C909   1.416       .  A
C909        C910   1.416       .  A
C909        C912   1.452       .  S
C910        C913   1.452       .  S
C911        N918   1.158       .  T
C912        N917   1.158       .  T
C913        N915   1.157       .  T
C914        N916   1.157       .  T
C919        C920   1.430       .  A
C919        C924   1.431       .  A
C920        C921   1.417       .  A
C920        C925   1.452       .  S
C921        C922   1.408       .  A
C921        C928   1.452       .  S
C922        C923   1.406       .  A
C923        C924   1.419       .  A
C923        C926   1.452       .  S
C924        C927   1.450       .  S
C925        N932   1.157       .  T
C926        N931   1.157       .  T
C927        N929   1.158       .  T
C928        N930   1.158       .  T
C933        C934   1.423       .  A
C933        C938   1.422       .  A
C934        C935   1.420       .  A
C934        C939   1.450       .  S
C935        C936   1.412       .  A
C935        C942   1.451       .  S
C936        C937   1.413       .  A
C937        C938   1.416       .  A
C937        C940   1.452       .  S
C938        C941   1.452       .  S
C939        N946   1.157       .  T
C940        N945   1.157       .  T
C941        N943   1.158       .  T
C942        N944   1.157       .  T
C947        C948   1.418       .  A
C947        C952   1.418       .  A
C948        C949   1.412       .  A
C948        C953   1.452       .  S
C949        C950   1.414       .  A
C949        C956   1.453       .  S
C950        C951   1.413       .  A
C951        C952   1.418       .  A
C951        C954   1.450       .  S
C952        C955   1.451       .  S
C953        N960   1.158       .  T
C954        N959   1.157       .  T
C955        N957   1.157       .  T
C956        N958   1.157       .  T
C961        C962   1.414       .  A
C961        C966   1.418       .  A
C962        C963   1.414       .  A
C962        C967   1.451       .  S
C963        C964   1.418       .  A
C963        C970   1.452       .  S
C964        C965   1.416       .  A
C965        C966   1.422       .  A
C965        C968   1.450       .  S
C966        C969   1.450       .  S
C967        N974   1.157       .  T
C968        N973   1.157       .  T
C969        N971   1.157       .  T
C970        N972   1.157       .  T
C975        C976   1.418       .  A
C975        C980   1.416       .  A
C976        C977   1.416       .  A
C976        C981   1.453       .  S
C977        C978   1.419       .  A
C977        C984   1.452       .  S
C978        C979   1.420       .  A
C979        C980   1.421       .  A
C979        C982   1.450       .  S
C980        C983   1.451       .  S
C981        N988   1.158       .  T
C982        N987   1.157       .  T
C983        N985   1.157       .  T
C984        N986   1.157       .  T
C989        C990   1.414       .  A
C989        C994   1.410       .  A
C990        C991   1.418       .  A
C990        C995   1.451       .  S
C991        C992   1.419       .  A
C991        C998   1.450       .  S
C992        C993   1.422       .  A
C993        C994   1.412       .  A
C993        C996   1.452       .  S
C994        C997   1.452       .  S
C995       N1002   1.157       .  T
C996       N1001   1.158       .  T
C997        N999   1.157       .  T
C998       N1000   1.158       .  T
C1003      C1004   1.420       .  A
C1003      C1008   1.421       .  A
C1004      C1005   1.420       .  A
C1004      C1009   1.450       .  S
C1005      C1006   1.414       .  A
C1005      C1012   1.451   1_545  S
C1006      C1007   1.413       .  A
C1007      C1008   1.415       .  A
C1007      C1010   1.453   1_556  S
C1008      C1011   1.451       .  S
C1009      N1016   1.157       .  T
C1010      N1015   1.157       .  T
C1011      N1013   1.157       .  T
C1012      N1014   1.158       .  T
C1017      C1018   1.416       .  A
C1017      C1022   1.413       .  A
C1018      C1019   1.414       .  A
C1018      C1023   1.452       .  S
C1019      C1020   1.417       .  A
C1019      C1026   1.452       .  S
C1020      C1021   1.419       .  A
C1021      C1022   1.419       .  A
C1021      C1024   1.450       .  S
C1022      C1025   1.451       .  S
C1023      N1030   1.158       .  T
C1024      N1029   1.157       .  T
C1025      N1027   1.157       .  T
C1026      N1028   1.157   1_455  T
C1031      C1032   1.413       .  A
C1031      C1036   1.412       .  A
C1032      C1033   1.421       .  A
C1032      C1037   1.451   1_556  S
C1033      C1034   1.421       .  A
C1033      C1040   1.451       .  S
C1034      C1035   1.421       .  A
C1035      C1036   1.416       .  A
C1035      C1038   1.451       .  S
C1036      C1039   1.452       .  S
C1037      N1044   1.158       .  T
C1038      N1043   1.157       .  T
C1039      N1041   1.157   1_455  T
C1040      N1042   1.158       .  T
C1045      C1046   1.419       .  A
C1045      C1050   1.419       .  A
C1046      C1047   1.420       .  A
C1046      C1051   1.451       .  S
C1047      C1048   1.416       .  A
C1047      C1054   1.451       .  S
C1048      C1049   1.416       .  A
C1049      C1050   1.418       .  A
C1049      C1052   1.452       .  S
C1050      C1053   1.451       .  S
C1051      N1058   1.157       .  T
C1052      N1057   1.158       .  T
C1053      N1055   1.157       .  T
C1054      N1056   1.157       .  T
C1059      C1060   1.416       .  A
C1059      C1064   1.419       .  A
C1060      C1061   1.417       .  A
C1060      C1065   1.450       .  S
C1061      C1062   1.416       .  A
C1061      C1068   1.451       .  S
C1062      C1063   1.415       .  A
C1063      C1064   1.417       .  A
C1063      C1066   1.452       .  S
C1064      C1067   1.451       .  S
C1065      N1072   1.157       .  T
C1066      N1071   1.157       .  T
C1067      N1069   1.157       .  T
C1068      N1070   1.157       .  T
C1073      C1074   1.418       .  A
C1073      C1078   1.419       .  A
C1074      C1075   1.414       .  A
C1074      C1079   1.453       .  S
C1075      C1076   1.418       .  A
C1075      C1082   1.453       .  S
C1076      C1077   1.414       .  A
C1077      C1078   1.420       .  A
C1077      C1080   1.450       .  S
C1078      C1081   1.450       .  S
C1079      N1086   1.157       .  T
C1080      N1085   1.157       .  T
C1081      N1083   1.157       .  T
C1082      N1084   1.158       .  T
C1087      C1088   1.416       .  A
C1087      C1092   1.415       .  A
C1088      C1089   1.421       .  A
C1088      C1093   1.450       .  S
C1089      C1090   1.419       .  A
C1089      C1096   1.451       .  S
C1090      C1091   1.420       .  A
C1091      C1092   1.417       .  A
C1091      C1094   1.452   1_556  S
C1092      C1095   1.452       .  S
C1093      N1100   1.157       .  T
C1094      N1099   1.158       .  T
C1095      N1097   1.157       .  T
C1096      N1098   1.157       .  T
C1101      C1102   1.428       .  A
C1101      C1106   1.426       .  A
C1102      C1103   1.417       .  A
C1102      C1107   1.451       .  S
C1103      C1104   1.409       .  A
C1103      C1110   1.453       .  S
C1104      C1105   1.409       .  A
C1105      C1106   1.418       .  A
C1105      C1108   1.452       .  S
C1106      C1109   1.450       .  S
C1107      N1114   1.158       .  T
C1108      N1113   1.157       .  T
C1109      N1111   1.157       .  T
C1110      N1112   1.157   1_545  T
C1115      C1116   1.416       .  A
C1115      C1120   1.420       .  A
C1116      C1117   1.419       .  A
C1116      C1121   1.451       .  S
C1117      C1118   1.417       .  A
C1117      C1124   1.451       .  S
C1118      C1119   1.416       .  A
C1119      C1120   1.415       .  A
C1119      C1122   1.452   1_556  S
C1120      C1123   1.452       .  S
C1121      N1128   1.157       .  T
C1122      N1127   1.157       .  T
C1123      N1125   1.158       .  T
C1124      N1126   1.157   1_545  T
