geometry optimzed in LAMMPS
_audit_creation_date              2020-11-30 
_audit_creation_method            'lammps2cif' 
_symmetry_space_group_name_H-M    'P1' 
_symmetry_Int_Tables_number       1 
_symmetry_cell_setting            triclinic 
loop_ 
_symmetry_equiv_pos_as_xyz 
  x,y,z 
_cell_length_a                    86.9361743 
_cell_length_b                    86.81433196066457 
_cell_length_c                    86.97942160959312 
_cell_angle_alpha                 89.98096811603222 
_cell_angle_beta                  89.99582648389953 
_cell_angle_gamma                 90.0094893536704 
loop_ 
_atom_site_label 
_atom_site_type_symbol 
_atom_site_fract_x 
_atom_site_fract_y 
_atom_site_fract_z 
_atom_site_charge 
N1          N  0.62842732  0.14156005  0.81837510    -0.27000
N2          N  0.63140958  0.15600970  0.81466066    -0.34800
C3          C  0.63646232  0.15652706  0.80006265     0.01400
C4          C  0.63691696  0.14163088  0.79440481     0.07400
C5          C  0.63152048  0.13246642  0.80625222    -0.05700
H6          H  0.63976854  0.16695024  0.79409185     0.08000
H7          H  0.63030486  0.12006294  0.80619350     0.09200
Cu8        Cu  0.62952665  0.17409090  0.83004549     0.44200
Cu9        Cu  0.62135910  0.13495795  0.84010692     0.42000
Cu10       Cu  0.62028323  0.16458965  0.86971337     0.43900
N11         N  0.62887767  0.19006081  0.84769909    -0.34400
N12         N  0.62570823  0.18666044  0.86217839    -0.28600
C13         C  0.62729748  0.19945959  0.87075785    -0.04700
C14         C  0.63146168  0.21149892  0.86117620     0.07500
C15         C  0.63249634  0.20507568  0.84667209     0.01300
H16         H  0.62581036  0.19991653  0.88309931     0.08900
H17         H  0.63633065  0.21066859  0.83624511     0.08000
N18         N  0.61645641  0.14132766  0.87390571    -0.35800
N19         N  0.61675996  0.13067557  0.86304569    -0.28000
C20         C  0.61520932  0.11673415  0.86954552    -0.03200
C21         C  0.61374719  0.11862511  0.88525598     0.05400
C22         C  0.61469842  0.13438015  0.88763551     0.03500
H23         H  0.61587147  0.10594643  0.86335387     0.08600
H24         H  0.61500638  0.14027532  0.89858939     0.07400
N25         N  0.87837656  0.13616889  0.60117207    -0.27000
N26         N  0.87544947  0.15093538  0.60337205    -0.34800
C27         C  0.86031324  0.15279362  0.60590744     0.01400
C28         C  0.85335695  0.13848771  0.60522321     0.07400
C29         C  0.86516504  0.12819087  0.60235187    -0.05700
H30         H  0.85494114  0.16365228  0.60878278     0.08000
H31         H  0.86425506  0.11579406  0.60146430     0.09200
Cu32       Cu  0.89239155  0.16755702  0.60446279     0.44200
Cu33       Cu  0.90038705  0.12770016  0.59757407     0.42000
Cu34       Cu  0.93202990  0.15510838  0.60165268     0.43900
N35         N  0.91101793  0.18193497  0.60768586    -0.34400
N36         N  0.92553785  0.17750434  0.60682340    -0.28600
C37         C  0.93466069  0.18965361  0.60987803    -0.04700
C38         C  0.92537425  0.20222019  0.61302901     0.07500
C39         C  0.91048401  0.19694403  0.61131497     0.01300
H40         H  0.94710225  0.18934704  0.60987868     0.08900
H41         H  0.90000155  0.20354808  0.61254095     0.08000
N42         N  0.93488088  0.13193564  0.59657895    -0.35800
N43         N  0.92342075  0.12203147  0.59504658    -0.28000
C44         C  0.92923852  0.10793356  0.59237756    -0.03200
C45         C  0.94511627  0.10902523  0.59204394     0.05400
C46         C  0.94827562  0.12438327  0.59492464     0.03500
H47         H  0.92241921  0.09756100  0.59132061     0.08600
H48         H  0.95950834  0.12962615  0.59607712     0.07400
N49         N  0.86324508  0.41558219  0.85282902    -0.27000
N50         N  0.86691673  0.41619490  0.86756893    -0.34800
C51         C  0.85456494  0.41222996  0.87596742     0.01400
C52         C  0.84258363  0.40882960  0.86605905     0.07400
C53         C  0.84845836  0.41128396  0.85147478    -0.05700
H54         H  0.85432548  0.41183904  0.88839887     0.08000
H55         H  0.84243252  0.41045504  0.84064827     0.09200
Cu56       Cu  0.88838215  0.42248670  0.87585417     0.44200
Cu57       Cu  0.87845608  0.41979100  0.83501813     0.42000
Cu58       Cu  0.91758688  0.42617765  0.84701085     0.43900
N59         N  0.91085285  0.42880012  0.88077867    -0.34400
N60         N  0.92158995  0.42997660  0.87010328    -0.28600
C61         C  0.93503192  0.43361843  0.87678932    -0.04700
C62         C  0.93264382  0.43506587  0.89245934     0.07500
C63         C  0.91718465  0.43173361  0.89458303     0.01300
H64         H  0.94585081  0.43462282  0.87072272     0.08900
H65         H  0.91106474  0.43115791  0.90539950     0.08000
N66         N  0.91111466  0.42306291  0.82438104    -0.35800
N67         N  0.89674179  0.42114181  0.81985003    -0.28000
C68         C  0.89654272  0.41909896  0.80452456    -0.03200
C69         C  0.91152533  0.41993126  0.79914557     0.05400
C70         C  0.92044809  0.42222445  0.81211771     0.03500
H71         H  0.88630221  0.41674378  0.79785885     0.08600
H72         H  0.93286969  0.42271882  0.81269873     0.07400
N73         N  0.71226016  0.37070036  0.89927636    -0.27000
N74         N  0.70915180  0.38551905  0.90086436    -0.34800
C75         C  0.72226509  0.39360037  0.89941283     0.01400
C76         C  0.73417861  0.38332603  0.89703293     0.07400
C77         C  0.72741457  0.36893441  0.89687418    -0.05700
H78         H  0.72302279  0.40603609  0.89973024     0.08000
H79         H  0.73293319  0.35804335  0.89442516     0.09200
Cu80       Cu  0.68716798  0.39407057  0.90415004     0.44200
Cu81       Cu  0.69578243  0.35357253  0.89909301     0.42000
Cu82       Cu  0.65649338  0.36565762  0.90411610     0.43900
N83         N  0.66413618  0.39946704  0.90691842    -0.34400
N84         N  0.65297275  0.38911703  0.90698291    -0.28600
C85         C  0.63941578  0.39637867  0.90865344    -0.04700
C86         C  0.64216986  0.41204559  0.90945744     0.07500
C87         C  0.65797980  0.41358249  0.90852784     0.01300
H88         H  0.62834142  0.39069760  0.90893907     0.08900
H89         H  0.66451911  0.42418302  0.90885659     0.08000
N90         N  0.66288717  0.34300767  0.90002181    -0.35800
N91         N  0.67731880  0.33863766  0.89812245    -0.28000
C92         C  0.67764184  0.32355262  0.89470139    -0.03200
C93         C  0.66269629  0.31809645  0.89459562     0.05400
C94         C  0.65362225  0.33078301  0.89789730     0.03500
H95         H  0.68797172  0.31711258  0.89209280     0.08600
H96         H  0.64120062  0.33133808  0.89793006     0.07400
N97         N  0.95464473  0.37070907  0.67611237    -0.27000
N98         N  0.95618380  0.38500293  0.67108626    -0.34800
C99         C  0.95427074  0.39475496  0.68292918     0.01400
C100        C  0.95158425  0.38621267  0.69608417     0.07400
C101        C  0.95175483  0.37100250  0.69130445    -0.05700
H102        H  0.95436404  0.40717872  0.68194886     0.08000
H103        H  0.94928363  0.36093733  0.69821824     0.09200
Cu104      Cu  0.95962811  0.39086936  0.64821642     0.44200
Cu105      Cu  0.95522812  0.35157756  0.66188416     0.42000
Cu106      Cu  0.96021549  0.35959545  0.62118030     0.43900
N107        N  0.96183298  0.39400448  0.62466432    -0.34400
N108        N  0.96201592  0.38247075  0.61476437    -0.28600
C109        C  0.96275071  0.38816535  0.60041352    -0.04700
C110        C  0.96328208  0.40408901  0.60127914     0.07500
C111        C  0.96247953  0.40737239  0.61685652     0.01300
H112        H  0.96236511  0.38122690  0.59008960     0.08900
H113        H  0.96205369  0.41865730  0.62211287     0.08000
N114        N  0.95710126  0.33774695  0.63014163    -0.35800
N115        N  0.95531792  0.33479608  0.64495099    -0.28000
C116        C  0.95303896  0.31959589  0.64681856    -0.03200
C117        C  0.95356264  0.31266291  0.63251049     0.05400
C118        C  0.95596959  0.32452257  0.62219445     0.03500
H119        H  0.95077580  0.31405858  0.65773386     0.08600
H120        H  0.95663860  0.32363950  0.60980478     0.07400
N121        N  0.66935374  0.10879240  0.66234533    -0.27000
N122        N  0.68355596  0.10774389  0.66764191    -0.34800
C123        C  0.68320880  0.10816492  0.68309280     0.01400
C124        C  0.66803475  0.10948571  0.68773381     0.07400
C125        C  0.65958603  0.11000580  0.67426452    -0.05700
H126        H  0.69329622  0.10835901  0.69037590     0.08000
H127        H  0.64730525  0.11171793  0.67319594     0.09200
Cu128      Cu  0.70270375  0.10754978  0.65347169     0.44200
Cu129      Cu  0.66412868  0.10965407  0.63915581     0.42000
Cu130      Cu  0.69583391  0.10823236  0.61203433     0.43900
N131        N  0.72000244  0.10861791  0.63711788    -0.34400
N132        N  0.71763427  0.10862797  0.62208958    -0.28600
C133        C  0.73129321  0.10999273  0.61490555    -0.04700
C134        C  0.74276612  0.11082345  0.62594089     0.07500
C135        C  0.73515043  0.11008594  0.63987052     0.01300
H136        H  0.73272288  0.11093364  0.60258399     0.08900
H137        H  0.74022128  0.11090777  0.65120068     0.08000
N138        N  0.67275437  0.10947449  0.60552012    -0.35800
N139        N  0.66132999  0.11016543  0.61553623    -0.28000
C140        C  0.64792079  0.11111331  0.60791934    -0.03200
C141        C  0.65096804  0.11123447  0.59231519     0.05400
C142        C  0.66683524  0.10994133  0.59120253     0.03500
H143        H  0.63673674  0.11150893  0.61336396     0.08600
H144        H  0.67357279  0.10946017  0.58075541     0.07400
N145        N  0.21314525  0.40607216  0.85482343    -0.27000
N146        N  0.20817858  0.40672385  0.86916248    -0.34800
C147        C  0.22006348  0.40438335  0.87874733     0.01400
C148        C  0.23309565  0.40190994  0.86999475     0.07400
C149        C  0.22834592  0.40331704  0.85487796    -0.05700
H150        H  0.21921119  0.40416781  0.89115602     0.08000
H151        H  0.23537033  0.40224662  0.84466448     0.09200
Cu152      Cu  0.18541876  0.40993712  0.87498950     0.44200
Cu153      Cu  0.19888389  0.40793023  0.83591114     0.42000
Cu154      Cu  0.15817775  0.41283249  0.84362109     0.43900
N155        N  0.16200868  0.41227817  0.87799308    -0.34400
N156        N  0.15200922  0.41339069  0.86660452    -0.28600
C157        C  0.13779805  0.41491113  0.87251357    -0.04700
C158        C  0.13895353  0.41460501  0.88837875     0.07500
C159        C  0.15447087  0.41307577  0.89143228     0.01300
H160        H  0.12752721  0.41666317  0.86573054     0.08900
H161        H  0.15990947  0.41271776  0.90261592     0.08000
N162        N  0.16730266  0.40987727  0.82183267    -0.35800
N163        N  0.18213417  0.40804617  0.81905294    -0.28000
C164        C  0.18418217  0.40550972  0.80395375    -0.03200
C165        C  0.16991602  0.40556006  0.79689734     0.05400
C166        C  0.15951109  0.40856135  0.80855813     0.03500
H167        H  0.19527551  0.40383809  0.79861809     0.08600
H168        H  0.14712565  0.40924475  0.80754228     0.07400
N169        N  0.21639240  0.13163270  0.60982320    -0.27000
N170        N  0.21825867  0.14636053  0.61309118    -0.34800
C171        C  0.23314839  0.14902293  0.61603436     0.01400
C172        C  0.24127137  0.13536490  0.61441650     0.07400
C173        C  0.23015901  0.12458347  0.61034577    -0.05700
H174        H  0.23770924  0.16023094  0.61897646     0.08000
H175        H  0.23176302  0.11263909  0.60741628     0.09200
Cu176      Cu  0.20106203  0.16273027  0.61233797     0.44200
Cu177      Cu  0.19515785  0.12175968  0.60525333     0.42000
Cu178      Cu  0.16334744  0.14890819  0.60452986     0.43900
N179        N  0.18231316  0.17711506  0.61000651    -0.34400
N180        N  0.16834391  0.17196337  0.60701450    -0.28600
C181        C  0.15849281  0.18387188  0.60679952    -0.04700
C182        C  0.16672278  0.19719293  0.60964132     0.07500
C183        C  0.18176876  0.19247633  0.61177500     0.01300
H184        H  0.14618616  0.18283922  0.60525591     0.08900
H185        H  0.19151812  0.19962643  0.61475243     0.08000
N186        N  0.16076704  0.12534440  0.60336711    -0.35800
N187        N  0.17223710  0.11535532  0.60355624    -0.28000
C188        C  0.16643279  0.10101352  0.60265858    -0.03200
C189        C  0.15054949  0.10210287  0.60198033     0.05400
C190        C  0.14740885  0.11768936  0.60233180     0.03500
H191        H  0.17332762  0.09067164  0.60209232     0.08600
H192        H  0.13620437  0.12309470  0.60185225     0.07400
N193        N  0.46152383  0.14677013  0.82422095    -0.27000
N194        N  0.46065316  0.16175246  0.82166524    -0.34800
C195        C  0.46014332  0.16430390  0.80644959     0.01400
C196        C  0.46077938  0.15026987  0.79898768     0.07400
C197        C  0.46146723  0.13936929  0.81061691    -0.05700
H198        H  0.45847846  0.17549458  0.80122741     0.08000
H199        H  0.46140414  0.12697826  0.80929417     0.09200
Cu200      Cu  0.45765016  0.17799320  0.83872134     0.44200
Cu201      Cu  0.46180820  0.13733155  0.84619916     0.42000
Cu202      Cu  0.45388270  0.16444588  0.87744979     0.43900
N203        N  0.45063392  0.19183765  0.85668257    -0.34400
N204        N  0.44887395  0.18685780  0.87092770    -0.28600
C205        C  0.44359232  0.19849541  0.87967508    -0.04700
C206        C  0.44180254  0.21133860  0.87038748     0.07500
C207        C  0.44655146  0.20673525  0.85594449     0.01300
H208        H  0.44137549  0.19771322  0.89189129     0.08900
H209        H  0.44689128  0.21367529  0.84561521     0.08000
N210        N  0.46009515  0.14161344  0.88066883    -0.35800
N211        N  0.46284931  0.13172625  0.86942712    -0.28000
C212        C  0.46650066  0.11798074  0.87559329    -0.03200
C213        C  0.46627071  0.11936358  0.89144850     0.05400
C214        C  0.46195810  0.13444157  0.89423288     0.03500
H215        H  0.46912351  0.10773310  0.86902194     0.08600
H216        H  0.46006034  0.13976003  0.90532045     0.07400
N217        N  0.36407816  0.37229701  0.90641656    -0.27000
N218        N  0.36701839  0.38694707  0.90931498    -0.34800
C219        C  0.35401038  0.39513490  0.90748586     0.01400
C220        C  0.34247166  0.38515081  0.90286229     0.07400
C221        C  0.34922779  0.37076546  0.90255486    -0.05700
H222        H  0.35313295  0.40746782  0.90904502     0.08000
H223        H  0.34386231  0.36001069  0.89927287     0.09200
Cu224      Cu  0.38888687  0.39520288  0.91394484     0.44200
Cu225      Cu  0.38026343  0.35497836  0.90657297     0.42000
Cu226      Cu  0.41920132  0.36597337  0.91243437     0.43900
N227        N  0.41215582  0.39990479  0.91611215    -0.34400
N228        N  0.42302396  0.38925700  0.91566910    -0.28600
C229        C  0.43681834  0.39609460  0.91684634    -0.04700
C230        C  0.43458669  0.41179300  0.91822061     0.07500
C231        C  0.41880156  0.41382825  0.91749990     0.01300
H232        H  0.44771026  0.39008145  0.91642076     0.08900
H233        H  0.41261962  0.42464482  0.91751012     0.08000
N234        N  0.41269827  0.34353049  0.90786809    -0.35800
N235        N  0.39821118  0.33952470  0.90570166    -0.28000
C236        C  0.39754958  0.32446935  0.90224877    -0.03200
C237        C  0.41234624  0.31865869  0.90243106     0.05400
C238        C  0.42170220  0.33109772  0.90587145     0.03500
H239        H  0.38709967  0.31827834  0.89951421     0.08600
H240        H  0.43413533  0.33120572  0.90641945     0.07400
N241        N  0.38198414  0.12731250  0.62337870    -0.27000
N242        N  0.37972957  0.13415542  0.63674354    -0.34800
C243        C  0.36462527  0.13682492  0.63852350     0.01400
C244        C  0.35692689  0.13142857  0.62564360     0.07400
C245        C  0.36836416  0.12530237  0.61636188    -0.05700
H246        H  0.35960059  0.14216728  0.64857448     0.08000
H247        H  0.36703876  0.11929449  0.60559433     0.09200
Cu248      Cu  0.39705006  0.13853208  0.65246468     0.44200
Cu249      Cu  0.40346134  0.12139329  0.61507589     0.42000
Cu250      Cu  0.43565465  0.12936999  0.64037006     0.43900
N251        N  0.41587772  0.13932058  0.66700246    -0.34400
N252        N  0.43003203  0.13592827  0.66260759    -0.28600
C253        C  0.43936548  0.13636872  0.67493091    -0.04700
C254        C  0.43058723  0.13991698  0.68773831     0.07500
C255        C  0.41580563  0.14195684  0.68223391     0.01300
H256        H  0.45153911  0.13379168  0.67466812     0.08900
H257        H  0.40562109  0.14449688  0.68891825     0.08000
N258        N  0.43797478  0.12238754  0.61767578    -0.35800
N259        N  0.42622531  0.11942173  0.60849207    -0.28000
C260        C  0.43156541  0.11574916  0.59445931    -0.03200
C261        C  0.44744867  0.11653199  0.59480935     0.05400
C262        C  0.45112080  0.12059402  0.60974014     0.03500
H263        H  0.42437139  0.11266701  0.58480161     0.08600
H264        H  0.46251038  0.12244855  0.61439913     0.07400
N265        N  0.13410112  0.36434951  0.66905966    -0.27000
N266        N  0.13722130  0.37820374  0.66358044    -0.34800
C267        C  0.13998644  0.38783047  0.67534646     0.01400
C268        C  0.13837948  0.37969541  0.68891368     0.07400
C269        C  0.13482483  0.36479541  0.68448705    -0.05700
H270        H  0.14330960  0.39977639  0.67409432     0.08000
H271        H  0.13344989  0.35487905  0.69190005     0.09200
Cu272      Cu  0.13872823  0.38327543  0.64045402     0.44200
Cu273      Cu  0.13020892  0.34522566  0.65535216     0.42000
Cu274      Cu  0.13360591  0.35164450  0.61432005     0.43900
N275        N  0.14031415  0.38542442  0.61688816    -0.34400
N276        N  0.13838274  0.37382914  0.60725115    -0.28600
C277        C  0.13962745  0.37907117  0.59276756    -0.04700
C278        C  0.14267283  0.39469160  0.59336553     0.07500
C279        C  0.14286170  0.39836286  0.60882778     0.01300
H280        H  0.13812549  0.37209467  0.58257201     0.08900
H281        H  0.14423342  0.40968592  0.61383964     0.08000
N282        N  0.13005578  0.33029615  0.62415109    -0.35800
N283        N  0.12878641  0.32785017  0.63909535    -0.28000
C284        C  0.12853304  0.31257574  0.64168522    -0.03200
C285        C  0.12963771  0.30508360  0.62768233     0.05400
C286        C  0.13064730  0.31669847  0.61685403     0.03500
H287        H  0.12885189  0.30733606  0.65296951     0.08600
H288        H  0.13281737  0.31536182  0.60467705     0.07400
N289        N  0.43774633  0.87878598  0.81800624    -0.27000
N290        N  0.44089123  0.89318613  0.82183525    -0.34800
C291        C  0.44070571  0.90195245  0.80907417     0.01400
C292        C  0.43720711  0.89256973  0.79670917     0.07400
C293        C  0.43553612  0.87796777  0.80274305    -0.05700
H294        H  0.44263085  0.91426297  0.80885776     0.08000
H295        H  0.43248644  0.86759239  0.79656486     0.09200
Cu296      Cu  0.44460282  0.90025705  0.84432151     0.44200
Cu297      Cu  0.43591546  0.86096232  0.83363824     0.42000
Cu298      Cu  0.44248793  0.87039833  0.87355869     0.43900
N299        N  0.44758688  0.90431449  0.86764999    -0.34400
N300        N  0.44698592  0.89343267  0.87827850    -0.28600
C301        C  0.44926228  0.89986857  0.89216499    -0.04700
C302        C  0.45147808  0.91553911  0.89017506     0.07500
C303        C  0.45016411  0.91796032  0.87450789     0.01300
H304        H  0.44878171  0.89364729  0.90292529     0.08900
H305        H  0.45094894  0.92886655  0.86853599     0.08000
N306        N  0.43781857  0.84825835  0.86577673    -0.35800
N307        N  0.43541947  0.84489113  0.85115003    -0.28000
C308        C  0.43301517  0.82966787  0.84976626    -0.03200
C309        C  0.43413184  0.82308705  0.86419746     0.05400
C310        C  0.43695891  0.83522365  0.87411426     0.03500
H311        H  0.43063414  0.82382204  0.83904145     0.08600
H312        H  0.43845659  0.83459850  0.88644650     0.07400
N313        N  0.22119532  0.86439394  0.58335586    -0.27000
N314        N  0.21625829  0.87877045  0.58291763    -0.34800
C315        C  0.22839095  0.88834272  0.58367599     0.01400
C316        C  0.24162892  0.87953459  0.58453451     0.07400
C317        C  0.23660770  0.86440620  0.58445657    -0.05700
H318        H  0.22757938  0.90075743  0.58441777     0.08000
H319        H  0.24359341  0.85417886  0.58578753     0.09200
Cu320      Cu  0.19320782  0.88444585  0.58313559     0.44200
Cu321      Cu  0.20660124  0.84559421  0.58434960     0.42000
Cu322      Cu  0.16559281  0.85288404  0.58721754     0.43900
N323        N  0.16967272  0.88739898  0.58428097    -0.34400
N324        N  0.15954858  0.87610118  0.58560574    -0.28600
C325        C  0.14533742  0.88225314  0.58616801    -0.04700
C326        C  0.14660918  0.89813732  0.58497113     0.07500
C327        C  0.16223433  0.90094713  0.58405570     0.01300
H328        H  0.13485610  0.87566380  0.58748652     0.08900
H329        H  0.16785264  0.91205898  0.58357178     0.08000
N330        N  0.17542446  0.83103829  0.58926618    -0.35800
N331        N  0.19037642  0.82853595  0.58800361    -0.28000
C332        C  0.19325890  0.81353359  0.59046161    -0.03200
C333        C  0.17952069  0.80618612  0.59371643     0.05400
C334        C  0.16840314  0.81759618  0.59259878     0.03500
H335        H  0.20459707  0.80840297  0.59017442     0.08600
H336        H  0.15616969  0.81629199  0.59447564     0.07400
N337        N  0.16692022  0.61216452  0.82568400    -0.27000
N338        N  0.18164549  0.60994893  0.82260853    -0.34800
C339        C  0.18374218  0.61026210  0.80732445     0.01400
C340        C  0.16968477  0.61291425  0.80042144     0.07400
C341        C  0.15920673  0.61388134  0.81235889    -0.05700
H342        H  0.19477030  0.60913175  0.80166908     0.08000
H343        H  0.14702166  0.61624316  0.81145814     0.09200
Cu344      Cu  0.19857444  0.60812857  0.83916342     0.44200
Cu345      Cu  0.15855490  0.61388964  0.84797261     0.42000
Cu346      Cu  0.18722222  0.61081523  0.87874039     0.43900
N347        N  0.21404120  0.60977339  0.85710338    -0.34400
N348        N  0.20993165  0.61077331  0.87168816    -0.28600
C349        C  0.22253714  0.61321709  0.88030670    -0.04700
C350        C  0.23513449  0.61399966  0.87062115     0.07500
C351        C  0.22934585  0.61154219  0.85601634     0.01300
H352        H  0.22244508  0.61505827  0.89260857     0.08900
H353        H  0.23567037  0.61129277  0.84532392     0.08000
N354        N  0.16395761  0.61420529  0.88235983    -0.35800
N355        N  0.15363682  0.61561135  0.87126993    -0.28000
C356        C  0.13985318  0.61860677  0.87760264    -0.03200
C357        C  0.14163236  0.61932687  0.89338747     0.05400
C358        C  0.15700845  0.61622988  0.89601094     0.03500
H359        H  0.12934295  0.62035008  0.87117282     0.08600
H360        H  0.16276757  0.61561594  0.90702200     0.07400
N361        N  0.41544822  0.63047007  0.89571156    -0.27000
N362        N  0.42607690  0.64103015  0.89308574    -0.34800
C363        C  0.44002422  0.63437606  0.89389939     0.01400
C364        C  0.43798103  0.61888191  0.89709176     0.07400
C365        C  0.42228509  0.61686001  0.89831939    -0.05700
H366        H  0.45079997  0.64046424  0.89262683     0.08000
H367        H  0.41625680  0.60624772  0.90082729     0.09200
Cu368      Cu  0.42095646  0.66399720  0.88900382     0.44200
Cu369      Cu  0.39217409  0.63483550  0.89577491     0.42000
Cu370      Cu  0.38017874  0.67409734  0.89148944     0.43900
N371        N  0.41247470  0.68620948  0.88673994    -0.34400
N372        N  0.39772629  0.68984249  0.88771444    -0.28600
C373        C  0.39620922  0.70518663  0.88631507    -0.04700
C374        C  0.41068833  0.71153965  0.88463832     0.07500
C375        C  0.42071802  0.69916607  0.88472392     0.01300
H376        H  0.38537814  0.71130392  0.88679777     0.08900
H377        H  0.43310513  0.69956010  0.88357639     0.08000
N378        N  0.36494138  0.65601665  0.89480131    -0.35800
N379        N  0.36946555  0.64154313  0.89602681    -0.28000
C380        C  0.35707335  0.63235565  0.89686980    -0.03200
C381        C  0.34408994  0.64149820  0.89640908     0.05400
C382        C  0.34947431  0.65644338  0.89497391     0.03500
H383        H  0.35748373  0.61990736  0.89732297     0.08600
H384        H  0.34265945  0.66675324  0.89341155     0.07400
N385        N  0.15699799  0.61107564  0.61517952    -0.27000
N386        N  0.15720647  0.62172313  0.60429965    -0.34800
C387        C  0.15438542  0.61494840  0.59067965     0.01400
C388        C  0.15210668  0.59934564  0.59313674     0.07400
C389        C  0.15410413  0.59729179  0.60877889    -0.05700
H390        H  0.15398157  0.62094864  0.57978277     0.08000
H391        H  0.15362943  0.58654343  0.61506240     0.09200
Cu392      Cu  0.16124427  0.64501278  0.60832685     0.44200
Cu393      Cu  0.16030549  0.61544835  0.63831612     0.42000
Cu394      Cu  0.16726014  0.65515655  0.64810236     0.43900
N395        N  0.16491696  0.66751079  0.61574685    -0.34400
N396        N  0.16717717  0.67114148  0.63033381    -0.28600
C397        C  0.16865914  0.68651395  0.63154825    -0.04700
C398        C  0.16700710  0.69294694  0.61706529     0.07500
C399        C  0.16490010  0.68051864  0.60729093     0.01300
H400        H  0.17060968  0.69258473  0.64223423     0.08900
H401        H  0.16312925  0.68093610  0.59498597     0.08000
N402        N  0.16559268  0.63760056  0.66423596    -0.35800
N403        N  0.16305847  0.62301652  0.66068729    -0.28000
C404        C  0.16211740  0.61468924  0.67371134    -0.03200
C405        C  0.16431167  0.62452036  0.68603818     0.05400
C406        C  0.16630849  0.63895723  0.67960640     0.03500
H407        H  0.15967710  0.60247605  0.67417784     0.08600
H408        H  0.16798058  0.64970183  0.68568057     0.07400
N409        N  0.40190235  0.91662977  0.66404816    -0.27000
N410        N  0.41584291  0.92176887  0.66085734    -0.34800
C411        C  0.42444753  0.92136033  0.67368863     0.01400
C412        C  0.41541535  0.91589201  0.68562544     0.07400
C413        C  0.40123627  0.91287355  0.67901722    -0.05700
H414        H  0.43650668  0.92431491  0.67403924     0.08000
H415        H  0.39115888  0.90825383  0.68468060     0.09200
Cu416      Cu  0.42258561  0.92894628  0.63919913     0.44200
Cu417      Cu  0.38454650  0.91470840  0.64787240     0.42000
Cu418      Cu  0.39428055  0.92577965  0.60886409     0.43900
N419        N  0.42655383  0.93555183  0.61669029    -0.34400
N420        N  0.41627444  0.93427802  0.60557024    -0.28600
C421        C  0.42253019  0.93927034  0.59234276    -0.04700
C422        C  0.43740096  0.94412481  0.59533185     0.07500
C423        C  0.43961605  0.94139923  0.61084634     0.01300
H424        H  0.41679779  0.93903086  0.58130396     0.08900
H425        H  0.45003281  0.94332799  0.61737456     0.08000
N426        N  0.37265173  0.91840839  0.61553396    -0.35800
N427        N  0.36909215  0.91445185  0.62977175    -0.28000
C428        C  0.35414241  0.91056367  0.63034558    -0.03200
C429        C  0.34794617  0.91235839  0.61580214     0.05400
C430        C  0.36005818  0.91713681  0.60666270     0.03500
H431        H  0.34838870  0.90637241  0.64053783     0.08600
H432        H  0.35971459  0.91962245  0.59447731     0.07400
N433        N  0.86338200  0.86828339  0.59522692    -0.27000
N434        N  0.86809212  0.88274983  0.59455440    -0.34800
C435        C  0.85623778  0.89209913  0.59794237     0.01400
C436        C  0.84349856  0.88308038  0.60112092     0.07400
C437        C  0.84838615  0.86805192  0.59904709    -0.05700
H438        H  0.85690463  0.90454007  0.59827594     0.08000
H439        H  0.84163727  0.85769463  0.60059548     0.09200
Cu440      Cu  0.89063176  0.88915809  0.59014300     0.44200
Cu441      Cu  0.87782769  0.84952376  0.59202496     0.42000
Cu442      Cu  0.91827141  0.85825938  0.58644027     0.43900
N443        N  0.91405506  0.89268619  0.58743896    -0.34400
N444        N  0.92417733  0.88139549  0.58618807    -0.28600
C445        C  0.93837410  0.88746902  0.58518990    -0.04700
C446        C  0.93710781  0.90336188  0.58562312     0.07500
C447        C  0.92153819  0.90624117  0.58725591     0.01300
H448        H  0.94886509  0.88079808  0.58452169     0.08900
H449        H  0.91606213  0.91737348  0.58839541     0.08000
N450        N  0.90957490  0.83606937  0.58790251    -0.35800
N451        N  0.89486040  0.83288420  0.59010254    -0.28000
C452        C  0.89319779  0.81755732  0.59164075    -0.03200
C453        C  0.90750741  0.81077224  0.59010572     0.05400
C454        C  0.91763857  0.82284815  0.58786257     0.03500
H455        H  0.88242839  0.81180617  0.59407950     0.08600
H456        H  0.93002539  0.82212396  0.58689591     0.07400
N457        N  0.62815273  0.87209036  0.81639675    -0.27000
N458        N  0.62667565  0.88640933  0.82132793    -0.34800
C459        C  0.62874559  0.89613352  0.80948364     0.01400
C460        C  0.63190802  0.88749895  0.79654010     0.07400
C461        C  0.63121782  0.87229768  0.80125924    -0.05700
H462        H  0.62882134  0.90856097  0.81041512     0.08000
H463        H  0.63359254  0.86218697  0.79438682     0.09200
Cu464      Cu  0.62383301  0.89207971  0.84416979     0.44200
Cu465      Cu  0.62839368  0.85317718  0.83087388     0.42000
Cu466      Cu  0.62566746  0.86094208  0.87184171     0.43900
N467        N  0.62161707  0.89510540  0.86758047    -0.34400
N468        N  0.62190885  0.88380035  0.87773660    -0.28600
C469        C  0.62014225  0.88976998  0.89189910    -0.04700
C470        C  0.61894207  0.90567146  0.89060098     0.07500
C471        C  0.61981045  0.90854013  0.87496719     0.01300
H472        H  0.61961579  0.88289447  0.90221603     0.08900
H473        H  0.61945392  0.91965436  0.86934595     0.08000
N474        N  0.63129389  0.83959979  0.86266712    -0.35800
N475        N  0.63201724  0.83675902  0.84774573    -0.28000
C476        C  0.63650188  0.82210089  0.84559227    -0.03200
C477        C  0.63895026  0.81546612  0.85982132     0.05400
C478        C  0.63537057  0.82681487  0.87040408     0.03500
H479        H  0.63826768  0.81679422  0.83447778     0.08600
H480        H  0.63586735  0.82590301  0.88280052     0.07400
N481        N  0.91864860  0.60522473  0.81643588    -0.27000
N482        N  0.90478790  0.60070423  0.81212863    -0.34800
C483        C  0.90466042  0.59870514  0.79681927     0.01400
C484        C  0.91917034  0.60200286  0.79116898     0.07400
C485        C  0.92770511  0.60627163  0.80392843    -0.05700
H486        H  0.89450015  0.59596504  0.79017568     0.08000
H487        H  0.93944353  0.61041173  0.80403578     0.09200
Cu488      Cu  0.88606889  0.59952100  0.82676506     0.44200
Cu489      Cu  0.92408759  0.61096076  0.83894695     0.42000
Cu490      Cu  0.89236517  0.61045590  0.86629568     0.43900
N491        N  0.86848197  0.60237470  0.84252961    -0.34400
N492        N  0.87072249  0.60640160  0.85701198    -0.28600
C493        C  0.85698294  0.60873834  0.86374083    -0.04700
C494        C  0.84559012  0.60627297  0.85290550     0.07500
C495        C  0.85329668  0.60208989  0.83963518     0.01300
H496        H  0.85542562  0.61278051  0.87540259     0.08900
H497        H  0.84831814  0.59944549  0.82855724     0.08000
N498        N  0.91494053  0.61572945  0.87212659    -0.35800
N499        N  0.92641131  0.61605757  0.86214166    -0.28000
C500        C  0.93943911  0.61988755  0.86954578    -0.03200
C501        C  0.93600387  0.62227729  0.88490281     0.05400
C502        C  0.92039780  0.61932966  0.88615031     0.03500
H503        H  0.95065560  0.62055872  0.86419550     0.08600
H504        H  0.91352385  0.61970300  0.89651342     0.07400
N505        N  0.93590751  0.61763565  0.60847145    -0.27000
N506        N  0.93661118  0.62843801  0.59778963    -0.34800
C507        C  0.93801701  0.62167128  0.58394220     0.01400
C508        C  0.93799530  0.60583241  0.58603962     0.07400
C509        C  0.93679410  0.60375182  0.60175210    -0.05700
H510        H  0.93931900  0.62790303  0.57327199     0.08000
H511        H  0.93645881  0.59290229  0.60786931     0.09200
Cu512      Cu  0.93532993  0.65182178  0.60263958     0.44200
Cu513      Cu  0.93371112  0.62196399  0.63169685     0.42000
Cu514      Cu  0.93087500  0.66158813  0.64316686     0.43900
N515        N  0.93317525  0.67418495  0.61083252    -0.34400
N516        N  0.93173791  0.67769992  0.62556264    -0.28600
C517        C  0.93051378  0.69307151  0.62698526    -0.04700
C518        C  0.93130517  0.69955055  0.61248099     0.07500
C519        C  0.93278764  0.68724189  0.60249708     0.01300
H520        H  0.92881839  0.69906919  0.63775544     0.08900
H521        H  0.93343227  0.68773369  0.59008438     0.08000
N522        N  0.93006298  0.64334148  0.65855308    -0.35800
N523        N  0.93114488  0.62878139  0.65427701    -0.28000
C524        C  0.93021649  0.61970388  0.66675963    -0.03200
C525        C  0.92823827  0.62898409  0.67951814     0.05400
C526        C  0.92840897  0.64392654  0.67391368     0.03500
H527        H  0.93084443  0.60725868  0.66654734     0.08600
H528        H  0.92750646  0.65444691  0.68051868     0.07400
N529        N  0.66608887  0.62450512  0.89408055    -0.27000
N530        N  0.65576505  0.63561933  0.89518905    -0.34800
C531        C  0.64232950  0.62951083  0.89986232     0.01400
C532        C  0.64437434  0.61381768  0.90195769     0.07400
C533        C  0.65953679  0.61106137  0.89801500    -0.05700
H534        H  0.63173263  0.63592509  0.90110774     0.08000
H535        H  0.66529804  0.60002047  0.89766799     0.09200
Cu536      Cu  0.66038337  0.65838670  0.88960481     0.44200
Cu537      Cu  0.68835351  0.62780122  0.88642938     0.42000
Cu538      Cu  0.69926562  0.66657602  0.87630519     0.43900
N539        N  0.66822576  0.68022343  0.88390254    -0.34400
N540        N  0.68240565  0.68325207  0.87930692    -0.28600
C541        C  0.68371440  0.69847304  0.87672188    -0.04700
C542        C  0.66973420  0.70540517  0.87997271     0.07500
C543        C  0.66013035  0.69341261  0.88425477     0.01300
H544        H  0.69407190  0.70407379  0.87267882     0.08900
H545        H  0.64805758  0.69415886  0.88718124     0.08000
N546        N  0.71387996  0.64776236  0.87431514    -0.35800
N547        N  0.70985952  0.63358654  0.87810427    -0.28000
C548        C  0.72196598  0.62415505  0.87616596    -0.03200
C549        C  0.73421517  0.63276702  0.87071078     0.05400
C550        C  0.72867503  0.64771566  0.86981709     0.03500
H551        H  0.72196717  0.61211502  0.87929705     0.08600
H552        H  0.73503947  0.65787681  0.86643164     0.07400
N553        N  0.71338380  0.92034733  0.63817683    -0.27000
N554        N  0.71038563  0.92160445  0.62332280    -0.34800
C555        C  0.72353522  0.91973839  0.61537194     0.01400
C556        C  0.73544596  0.91744866  0.62571729     0.07400
C557        C  0.72851066  0.91773210  0.64004938    -0.05700
H558        H  0.72428920  0.91966187  0.60295568     0.08000
H559        H  0.73402441  0.91589299  0.65104913     0.09200
Cu560      Cu  0.68856491  0.92568451  0.61446170     0.44200
Cu561      Cu  0.69680121  0.92132198  0.65534187     0.42000
Cu562      Cu  0.65819014  0.92901864  0.64263465     0.43900
N563        N  0.66590509  0.93096128  0.60899733    -0.34400
N564        N  0.65491822  0.93232858  0.61940701    -0.28600
C565        C  0.64167365  0.93602716  0.61238653    -0.04700
C566        C  0.64437145  0.93689564  0.59676217     0.07500
C567        C  0.65990308  0.93375464  0.59501427     0.01300
H568        H  0.63082781  0.93780290  0.61822602     0.08900
H569        H  0.66648120  0.93384823  0.58447122     0.08000
N570        N  0.66377488  0.92440366  0.66518607    -0.35800
N571        N  0.67792535  0.92161113  0.66997069    -0.28000
C572        C  0.67754599  0.91854479  0.68512594    -0.03200
C573        C  0.66240269  0.91927713  0.69000495     0.05400
C574        C  0.65401401  0.92317972  0.67708930     0.03500
H575        H  0.68748758  0.91558402  0.69200016     0.08600
H576        H  0.64175029  0.92506792  0.67632374     0.07400
N577        N  0.20906339  0.62164101  0.11275759    -0.27000
N578        N  0.21377828  0.61823097  0.12680434    -0.34800
C579        C  0.22918281  0.61957777  0.12736801     0.01400
C580        C  0.23439962  0.62425750  0.11305914     0.07400
C581        C  0.22132711  0.62515326  0.10401034    -0.05700
H582        H  0.23604811  0.61774407  0.13758036     0.08000
H583        H  0.22071603  0.62839467  0.09201327     0.09200
Cu584      Cu  0.19902724  0.61306701  0.14491999     0.44200
Cu585      Cu  0.18615937  0.62265371  0.10633224     0.42000
Cu586      Cu  0.15848026  0.61735545  0.13685022     0.43900
N587        N  0.18192288  0.61084290  0.16149411    -0.34400
N588        N  0.16712708  0.61262392  0.15848629    -0.28600
C589        C  0.15916074  0.61210383  0.17171402    -0.04700
C590        C  0.16938148  0.60973079  0.18367227     0.07500
C591        C  0.18373826  0.60909647  0.17676396     0.01300
H592        H  0.14690164  0.61404652  0.17263426     0.08900
H593        H  0.19475636  0.60841248  0.18250718     0.08000
N594        N  0.15249833  0.62235913  0.11439565    -0.35800
N595        N  0.16260925  0.62415219  0.10318617    -0.28000
C596        C  0.15505043  0.62685336  0.08997874    -0.03200
C597        C  0.13945793  0.62696719  0.09309572     0.05400
C598        C  0.13823613  0.62392343  0.10864651     0.03500
H599        H  0.16049196  0.62849392  0.07891079     0.08600
H600        H  0.12775621  0.62260650  0.11522845     0.07400
N601        N  0.22627432  0.85958003  0.39894366    -0.27000
N602        N  0.22204600  0.87414102  0.39759002    -0.34800
C603        C  0.23468949  0.88296695  0.39632470     0.01400
C604        C  0.24748386  0.87350550  0.39703251     0.07400
C605        C  0.24169612  0.85875229  0.39856645    -0.05700
H606        H  0.23448886  0.89518522  0.39392311     0.08000
H607        H  0.24819542  0.84812482  0.39867066     0.09200
Cu608      Cu  0.19936587  0.88120148  0.39556758     0.44200
Cu609      Cu  0.21108823  0.84126551  0.39938502     0.42000
Cu610      Cu  0.17088934  0.85074034  0.39510168     0.43900
N611        N  0.17606277  0.88503611  0.39229904    -0.34400
N612        N  0.16566205  0.87392660  0.39204085    -0.28600
C613        C  0.15172003  0.88019723  0.38960172    -0.04700
C614        C  0.15343629  0.89599169  0.38807275     0.07500
C615        C  0.16901843  0.89864916  0.39005983     0.01300
H616        H  0.14109217  0.87373739  0.38902258     0.08900
H617        H  0.17479602  0.90968922  0.39009578     0.08000
N618        N  0.17907965  0.82834220  0.39738094    -0.35800
N619        N  0.19384202  0.82488776  0.39858967    -0.28000
C620        C  0.19548568  0.80948037  0.39853691    -0.03200
C621        C  0.18103475  0.80292242  0.39753350     0.05400
C622        C  0.17091310  0.81519709  0.39672491     0.03500
H623        H  0.20640527  0.80350958  0.39881644     0.08600
H624        H  0.15859390  0.81460355  0.39506420     0.07400
N625        N  0.45862830  0.87389580  0.16955085    -0.27000
N626        N  0.45894915  0.88867755  0.16590361    -0.34800
C627        C  0.45744985  0.89710052  0.17879138     0.01400
C628        C  0.45622947  0.88712367  0.19114759     0.07400
C629        C  0.45690785  0.87252896  0.18482854    -0.05700
H630        H  0.45621130  0.90949094  0.17895795     0.08000
H631        H  0.45551254  0.86169560  0.19082265     0.09200
Cu632      Cu  0.45951886  0.89674129  0.14351414     0.44200
Cu633      Cu  0.45859279  0.85606737  0.15373336     0.42000
Cu634      Cu  0.45863150  0.86717753  0.11407594     0.43900
N635        N  0.45886595  0.90133917  0.12017484    -0.34400
N636        N  0.45860373  0.89052795  0.10947971    -0.28600
C637        C  0.45803590  0.89722432  0.09556968    -0.04700
C638        C  0.45771647  0.91300553  0.09760650     0.07500
C639        C  0.45846500  0.91522340  0.11334271     0.01300
H640        H  0.45779116  0.89104980  0.08476882     0.08900
H641        H  0.45881805  0.92611372  0.11937978     0.08000
N642        N  0.45706151  0.84454518  0.12125907    -0.35800
N643        N  0.45700639  0.84037794  0.13586508    -0.28000
C644        C  0.45474332  0.82506997  0.13673784    -0.03200
C645        C  0.45347351  0.81933073  0.12192935     0.05400
C646        C  0.45484302  0.83204412  0.11243964     0.03500
H647        H  0.45343607  0.81870873  0.14735732     0.08600
H648        H  0.45378746  0.83226522  0.10004703     0.07400
N649        N  0.40197227  0.69327639  0.08687837    -0.27000
N650        N  0.41644532  0.68869703  0.08594165    -0.34800
C651        C  0.42573934  0.70079758  0.08863260     0.01400
C652        C  0.41667906  0.71355697  0.09161156     0.07400
C653        C  0.40167529  0.70839681  0.09019268    -0.05700
H654        H  0.43816925  0.70023912  0.08890243     0.08000
H655        H  0.39126254  0.71506500  0.09150826     0.09200
Cu656      Cu  0.42282962  0.66605174  0.08187768     0.44200
Cu657      Cu  0.38318697  0.67862196  0.08487943     0.42000
Cu658      Cu  0.39154806  0.63856237  0.07795251     0.43900
N659        N  0.42595517  0.64275893  0.07765665    -0.34400
N660        N  0.41454980  0.63282415  0.07595315    -0.28600
C661        C  0.42042405  0.61870498  0.07357195    -0.04700
C662        C  0.43628141  0.61983523  0.07367652     0.07500
C663        C  0.43939695  0.63519803  0.07648174     0.01300
H664        H  0.41365798  0.60831842  0.07232428     0.08900
H665        H  0.45060705  0.64045605  0.07777102     0.08000
N666        N  0.36962756  0.64678902  0.08217508    -0.35800
N667        N  0.36652322  0.66146810  0.08475656    -0.28000
C668        C  0.35150978  0.66287209  0.08823649    -0.03200
C669        C  0.34493170  0.64834139  0.08800794     0.05400
C670        C  0.35669824  0.63846341  0.08390775     0.03500
H671        H  0.34590112  0.67360202  0.09116666     0.08600
H672        H  0.35605038  0.62606110  0.08287243     0.07400
N673        N  0.40689610  0.91585151  0.31889975    -0.27000
N674        N  0.42116929  0.91964478  0.32249263    -0.34800
C675        C  0.43000933  0.91855421  0.30988133     0.01400
C676        C  0.42082266  0.91399786  0.29774399     0.07400
C677        C  0.40625568  0.91225294  0.30389058    -0.05700
H678        H  0.44228565  0.92059005  0.30964136     0.08000
H679        H  0.39611055  0.90793242  0.29813882     0.09200
Cu680      Cu  0.42824331  0.92514125  0.34447695     0.44200
Cu681      Cu  0.38929308  0.91443453  0.33478274     0.42000
Cu682      Cu  0.39956698  0.92240413  0.37437868     0.43900
N683        N  0.43259534  0.92997284  0.36730806    -0.34400
N684        N  0.42206485  0.92916083  0.37823090    -0.28600
C685        C  0.42857950  0.93279782  0.39175633    -0.04700
C686        C  0.44392183  0.93621200  0.38919879     0.07500
C687        C  0.44610871  0.93407058  0.37358763     0.01300
H688        H  0.42263630  0.93273713  0.40268611     0.08900
H689        H  0.45680195  0.93504806  0.36729669     0.08000
N690        N  0.37815366  0.91456965  0.36754390    -0.35800
N691        N  0.37434440  0.91193442  0.35306621    -0.28000
C692        C  0.35981097  0.90670660  0.35252802    -0.03200
C693        C  0.35432080  0.90580142  0.36739107     0.05400
C694        C  0.36617083  0.91098622  0.37662929     0.03500
H695        H  0.35382691  0.90343476  0.34212339     0.08600
H696        H  0.36610966  0.91213410  0.38900978     0.07400
N697        N  0.14234750  0.61330758  0.36538053    -0.27000
N698        N  0.14300105  0.62303050  0.37706680    -0.34800
C699        C  0.14303961  0.61494944  0.39025929     0.01400
C700        C  0.14253361  0.59943541  0.38663957     0.07400
C701        C  0.14188657  0.59882267  0.37080021    -0.05700
H702        H  0.14351263  0.61998106  0.40162894     0.08000
H703        H  0.14149346  0.58859015  0.36371310     0.09200
Cu704      Cu  0.14440660  0.64677832  0.37459262     0.44200
Cu705      Cu  0.14340638  0.61979030  0.34256537     0.42000
Cu706      Cu  0.14842160  0.66022485  0.33532430     0.43900
N707        N  0.14657171  0.66984318  0.36864559    -0.34400
N708        N  0.14786836  0.67470991  0.35429536    -0.28600
C709        C  0.14971105  0.69008603  0.35431432    -0.04700
C710        C  0.14948317  0.69518197  0.36938445     0.07500
C711        C  0.14764344  0.68201023  0.37817422     0.01300
H712        H  0.15174412  0.69697246  0.34414430     0.08900
H713        H  0.14751550  0.68127959  0.39059159     0.08000
N714        N  0.14949293  0.64355202  0.31826127    -0.35800
N715        N  0.14748646  0.62870969  0.32093431    -0.28000
C716        C  0.14914433  0.62089408  0.30770210    -0.03200
C717        C  0.15254750  0.63129433  0.29613343     0.05400
C718        C  0.15248475  0.64559040  0.30322853     0.03500
H719        H  0.14819609  0.60851387  0.30662685     0.08600
H720        H  0.15414679  0.65670848  0.29789939     0.07400
N721        N  0.64110345  0.87763599  0.16690686    -0.27000
N722        N  0.64048223  0.89252289  0.16378464    -0.34800
C723        C  0.64057072  0.90046534  0.17705432     0.01400
C724        C  0.64101277  0.89003011  0.18906315     0.07400
C725        C  0.64159027  0.87568387  0.18220891    -0.05700
H726        H  0.64015842  0.91289210  0.17790045     0.08000
H727        H  0.64235532  0.86463211  0.18791360     0.09200
Cu728      Cu  0.63895638  0.90121145  0.14167547     0.44200
Cu729      Cu  0.64112395  0.86056500  0.15040913     0.42000
Cu730      Cu  0.63627756  0.87248991  0.11117386     0.43900
N731        N  0.63602150  0.90651286  0.11865385    -0.34400
N732        N  0.63470890  0.89607104  0.10766042    -0.28600
C733        C  0.63258326  0.90328021  0.09415621    -0.04700
C734        C  0.63275959  0.91898656  0.09673914     0.07500
C735        C  0.63484210  0.92064155  0.11241433     0.01300
H736        H  0.63118400  0.89751285  0.08321972     0.08900
H737        H  0.63513984  0.93126644  0.11889204     0.08000
N738        N  0.63977801  0.84975798  0.11762400    -0.35800
N739        N  0.64161740  0.84548230  0.13208923    -0.28000
C740        C  0.64440609  0.83027890  0.13259817    -0.03200
C741        C  0.64452543  0.82473381  0.11770822     0.05400
C742        C  0.64132773  0.83733474  0.10850181     0.03500
H743        H  0.64641778  0.82378466  0.14302542     0.08600
H744        H  0.64058087  0.83753053  0.09608791     0.07400
N745        N  0.86353962  0.86594655  0.38696124    -0.27000
N746        N  0.86824885  0.88042099  0.38753768    -0.34800
C747        C  0.85590454  0.88976350  0.38755215     0.01400
C748        C  0.84281672  0.88071358  0.38702430     0.07400
C749        C  0.84810080  0.86570541  0.38652566    -0.05700
H750        H  0.85648609  0.90219667  0.38705309     0.08000
H751        H  0.84122696  0.85537479  0.38541110     0.09200
Cu752      Cu  0.89116519  0.88692846  0.38684961     0.44200
Cu753      Cu  0.87804522  0.84704983  0.38566786     0.42000
Cu754      Cu  0.91841320  0.85550126  0.38452282     0.43900
N755        N  0.91476621  0.88996593  0.38561119    -0.34400
N756        N  0.92465206  0.87842758  0.38488680    -0.28600
C757        C  0.93899428  0.88410147  0.38409836    -0.04700
C758        C  0.93814282  0.89999044  0.38449136     0.07500
C759        C  0.92258188  0.90332825  0.38523637     0.01300
H760        H  0.94928791  0.87715480  0.38320931     0.08900
H761        H  0.91731075  0.91461758  0.38525669     0.08000
N762        N  0.90972476  0.83339476  0.38395061    -0.35800
N763        N  0.89487206  0.83020130  0.38430392    -0.28000
C764        C  0.89301164  0.81483822  0.38354164    -0.03200
C765        C  0.90742012  0.80807167  0.38291809     0.05400
C766        C  0.91772743  0.82020095  0.38297779     0.03500
H767        H  0.88200136  0.80902828  0.38341179     0.08600
H768        H  0.93012528  0.81951003  0.38212973     0.07400
N769        N  0.86187435  0.62767686  0.11261319    -0.27000
N770        N  0.85682971  0.62640178  0.12688153    -0.34800
C771        C  0.84143853  0.62755969  0.12695346     0.01400
C772        C  0.83658970  0.62979653  0.11200125     0.07400
C773        C  0.84979783  0.62962054  0.10315917    -0.05700
H774        H  0.83430449  0.62667028  0.13710962     0.08000
H775        H  0.85057991  0.63088478  0.09080865     0.09200
Cu776      Cu  0.87100276  0.62269188  0.14547414     0.44200
Cu777      Cu  0.88493392  0.62683351  0.10695765     0.42000
Cu778      Cu  0.91200195  0.62082765  0.13838640     0.43900
N779        N  0.88704609  0.61808116  0.16226773    -0.34400
N780        N  0.90202001  0.61726134  0.15977586    -0.28600
C781        C  0.90916651  0.61453038  0.17321424    -0.04700
C782        C  0.89811704  0.61347350  0.18464231     0.07500
C783        C  0.88425439  0.61595195  0.17729754     0.01300
H784        H  0.92151602  0.61401378  0.17466734     0.08900
H785        H  0.87299171  0.61659553  0.18255274     0.08000
N786        N  0.91846865  0.62441793  0.11569097    -0.35800
N787        N  0.90855037  0.62638346  0.10433414    -0.28000
C788        C  0.91630052  0.62826091  0.09111996    -0.03200
C789        C  0.93185873  0.62729571  0.09422086     0.05400
C790        C  0.93283537  0.62507091  0.10996528     0.03500
H791        H  0.91098010  0.63019998  0.08004133     0.08600
H792        H  0.94320322  0.62413324  0.11678241     0.07400
N793        N  0.67329487  0.69143906  0.08754323    -0.27000
N794        N  0.65860587  0.68779314  0.08909504    -0.34800
C795        C  0.65050512  0.70065639  0.09201093     0.01400
C796        C  0.66059720  0.71297036  0.09243568     0.07400
C797        C  0.67491263  0.70672838  0.08939675    -0.05700
H798        H  0.63817140  0.70097016  0.09353985     0.08000
H799        H  0.68576023  0.71281568  0.08888567     0.09200
Cu800      Cu  0.65016362  0.66549954  0.08780665     0.44200
Cu801      Cu  0.69065002  0.67550470  0.08371583     0.42000
Cu802      Cu  0.67903713  0.63581085  0.08444289     0.43900
N803        N  0.64523314  0.64214502  0.08759322    -0.34400
N804        N  0.65593705  0.63139191  0.08656791    -0.28600
C805        C  0.64927519  0.61746654  0.08686427    -0.04700
C806        C  0.63360720  0.61951404  0.08832879     0.07500
C807        C  0.63138605  0.63529953  0.08852430     0.01300
H808        H  0.65537929  0.60665938  0.08578378     0.08900
H809        H  0.62052895  0.64134652  0.08924002     0.08000
N810        N  0.70153745  0.64265407  0.08229743    -0.35800
N811        N  0.70587194  0.65722735  0.08176494    -0.28000
C812        C  0.72130310  0.65781098  0.08119236    -0.03200
C813        C  0.72687716  0.64287414  0.08130378     0.05400
C814        C  0.71403112  0.63356891  0.08217168     0.03500
H815        H  0.72799405  0.66831428  0.08157419     0.08600
H816        H  0.71378974  0.62115465  0.08325526     0.07400
N817        N  0.93415131  0.67509032  0.34886444    -0.27000
N818        N  0.93464039  0.67148842  0.36362860    -0.34800
C819        C  0.93297556  0.68440180  0.37199439     0.01400
C820        C  0.93116357  0.69665622  0.36199100     0.07400
C821        C  0.93218101  0.69038213  0.34743383    -0.05700
H822        H  0.93245346  0.68475338  0.38441763     0.08000
H823        H  0.93077997  0.69636977  0.33661259     0.09200
Cu824      Cu  0.93552131  0.64905984  0.37177125     0.44200
Cu825      Cu  0.93404367  0.65896140  0.33137061     0.42000
Cu826      Cu  0.93019546  0.61920748  0.34314997     0.43900
N827        N  0.93365970  0.62583398  0.37703518    -0.34400
N828        N  0.93154325  0.61498425  0.36659109    -0.28600
C829        C  0.93084602  0.60123482  0.37366376    -0.04700
C830        C  0.93245072  0.60350812  0.38934162     0.07500
C831        C  0.93436729  0.61926546  0.39103177     0.01300
H832        H  0.92944026  0.59033488  0.36780114     0.08900
H833        H  0.93671634  0.62550477  0.40151786     0.08000
N834        N  0.92945177  0.62638198  0.32041444    -0.35800
N835        N  0.93111326  0.64090229  0.31614825    -0.28000
C836        C  0.92955747  0.64186916  0.30081372    -0.03200
C837        C  0.92694282  0.62722946  0.29510916     0.05400
C838        C  0.92676382  0.61771612  0.30787831     0.03500
H839        H  0.92976065  0.65252248  0.29435536     0.08600
H840        H  0.92456522  0.60545092  0.30807401     0.07400
N841        N  0.71126846  0.91256085  0.35255271    -0.27000
N842        N  0.70844532  0.91491483  0.36727893    -0.34800
C843        C  0.72160548  0.91338395  0.37523148     0.01400
C844        C  0.73328907  0.91010632  0.36495453     0.07400
C845        C  0.72629115  0.90949015  0.35069339    -0.05700
H846        H  0.72257862  0.91447651  0.38757635     0.08000
H847        H  0.73153361  0.90645836  0.33984241     0.09200
Cu848      Cu  0.68672714  0.91964544  0.37566358     0.44200
Cu849      Cu  0.69440152  0.91282008  0.33589206     0.42000
Cu850      Cu  0.65522501  0.92000267  0.34777677     0.43900
N851        N  0.66399371  0.92384774  0.38115562    -0.34400
N852        N  0.65259469  0.92404562  0.37108416    -0.28600
C853        C  0.63933438  0.92671330  0.37855392    -0.04700
C854        C  0.64254893  0.92804761  0.39406337     0.07500
C855        C  0.65829479  0.92639434  0.39528299     0.01300
H856        H  0.62817099  0.92749911  0.37310963     0.08900
H857        H  0.66508721  0.92674831  0.40570009     0.08000
N858        N  0.66134819  0.91412910  0.32554258    -0.35800
N859        N  0.67574175  0.91169764  0.32131517    -0.28000
C860        C  0.67604878  0.90769865  0.30643369    -0.03200
C861        C  0.66110017  0.90725395  0.30105501     0.05400
C862        C  0.65206700  0.91166398  0.31340692     0.03500
H863        H  0.68642688  0.90521778  0.30003101     0.08600
H864        H  0.63967244  0.91276240  0.31362774     0.07400
N865        N  0.90103816  0.43075810  0.16846456    -0.27000
N866        N  0.91540977  0.43436018  0.16503108    -0.34800
C867        C  0.92446933  0.43128510  0.17715448     0.01400
C868        C  0.91538397  0.42522063  0.18868635     0.07400
C869        C  0.90057378  0.42525818  0.18290984    -0.05700
H870        H  0.93686055  0.43246354  0.17721300     0.08000
H871        H  0.89038559  0.42072226  0.18843856     0.09200
Cu872      Cu  0.92259909  0.44064099  0.14335736     0.44200
Cu873      Cu  0.88313944  0.43151408  0.15269515     0.42000
Cu874      Cu  0.89395402  0.44091394  0.11340971     0.43900
N875        N  0.92777419  0.44343502  0.12041812    -0.34400
N876        N  0.91735633  0.44356137  0.10935611    -0.28600
C877        C  0.92457896  0.44483614  0.09573525    -0.04700
C878        C  0.94026514  0.44569904  0.09843690     0.07500
C879        C  0.94186281  0.44456680  0.11418799     0.01300
H880        H  0.91887763  0.44473440  0.08467824     0.08900
H881        H  0.95249820  0.44435477  0.12064475     0.08000
N882        N  0.87163253  0.43579478  0.12024450    -0.35800
N883        N  0.86772152  0.43212822  0.13447856    -0.28000
C884        C  0.85271258  0.42833682  0.13476754    -0.03200
C885        C  0.84694362  0.42948388  0.11997921     0.05400
C886        C  0.85920212  0.43451090  0.11113409     0.03500
H887        H  0.84657244  0.42454085  0.14490474     0.08600
H888        H  0.85919626  0.43668379  0.09888430     0.07400
N889        N  0.87489552  0.12083093  0.35504900    -0.27000
N890        N  0.87106278  0.13553210  0.35610128    -0.34800
C891        C  0.85565926  0.13668449  0.35674712     0.01400
C892        C  0.84944660  0.12203792  0.35588729     0.07400
C893        C  0.86199899  0.11224741  0.35494466    -0.05700
H894        H  0.84941168  0.14743284  0.35754778     0.08000
H895        H  0.86186328  0.09980729  0.35452484     0.09200
Cu896      Cu  0.88677837  0.15350075  0.35617182     0.44200
Cu897      Cu  0.89749008  0.11309553  0.35384544     0.42000
Cu898      Cu  0.92682609  0.14271121  0.35532097     0.43900
N899        N  0.90462698  0.16930219  0.35507179    -0.34400
N900        N  0.91930676  0.16532576  0.35504419    -0.28600
C901        C  0.92800020  0.17808890  0.35395632    -0.04700
C902        C  0.91831183  0.19065939  0.35299941     0.07500
C903        C  0.90357559  0.18471481  0.35388092     0.01300
H904        H  0.94043722  0.17818006  0.35351906     0.08900
H905        H  0.89289541  0.19110327  0.35356058     0.08000
N906        N  0.93160507  0.11940532  0.35376615    -0.35800
N907        N  0.92095248  0.10855842  0.35308619    -0.28000
C908        C  0.92789625  0.09472587  0.35230504    -0.03200
C909        C  0.94367641  0.09700114  0.35231887     0.05400
C910        C  0.94557409  0.11278540  0.35343502     0.03500
H911        H  0.92190425  0.08380229  0.35218357     0.08600
H912        H  0.95633698  0.11900381  0.35415347     0.07400
N913        N  0.64557424  0.15094892  0.14900270    -0.27000
N914        N  0.64756613  0.16565977  0.15234289    -0.34800
C915        C  0.64906090  0.16717057  0.16766259     0.01400
C916        C  0.64804529  0.15267312  0.17424301     0.07400
C917        C  0.64568922  0.14269953  0.16208032    -0.05700
H918        H  0.65055237  0.17804616  0.17352438     0.08000
H919        H  0.64433825  0.13032408  0.16267833     0.09200
Cu920      Cu  0.64849912  0.18281219  0.13575771     0.44200
Cu921      Cu  0.64268800  0.14284053  0.12684806     0.42000
Cu922      Cu  0.64284896  0.17087858  0.09596860     0.43900
N923        N  0.65089518  0.19737850  0.11699633    -0.34400
N924        N  0.64900610  0.19305070  0.10253541    -0.28600
C925        C  0.65228486  0.20501858  0.09325853    -0.04700
C926        C  0.65659162  0.21739470  0.10232145     0.07500
C927        C  0.65536396  0.21220478  0.11729558     0.01300
H928        H  0.65173392  0.20468832  0.08083559     0.08900
H929        H  0.65790636  0.21862641  0.12764697     0.08000
N930        N  0.63819972  0.14761682  0.09280785    -0.35800
N931        N  0.63842327  0.13743102  0.10410629    -0.28000
C932        C  0.63540707  0.12338610  0.09838288    -0.03200
C933        C  0.63291790  0.12477711  0.08274426     0.05400
C934        C  0.63499564  0.14027869  0.07956169     0.03500
H935        H  0.63531053  0.11288769  0.10509036     0.08600
H936        H  0.63437879  0.14578610  0.06841823     0.07400
N937        N  0.72132877  0.38587494  0.07720462    -0.27000
N938        N  0.71572349  0.39996767  0.07847805    -0.34800
C939        C  0.72693120  0.40942066  0.08349327     0.01400
C940        C  0.74012256  0.40077132  0.08570250     0.07400
C941        C  0.73620835  0.38595176  0.08137321    -0.05700
H942        H  0.72543241  0.42154986  0.08591991     0.08000
H943        H  0.74350480  0.37586096  0.08170463     0.09200
Cu944      Cu  0.69273961  0.40516942  0.07461678     0.44200
Cu945      Cu  0.70812793  0.36684003  0.07168981     0.42000
Cu946      Cu  0.66715374  0.37274023  0.06716311     0.43900
N947        N  0.66916303  0.40719213  0.07140131    -0.34400
N948        N  0.65984543  0.39548288  0.06855957    -0.28600
C949        C  0.64530681  0.40074928  0.06764754    -0.04700
C950        C  0.64547810  0.41646338  0.07030104     0.07500
C951        C  0.66080683  0.42017671  0.07241784     0.01300
H952        H  0.63530782  0.39360554  0.06564259     0.08900
H953        H  0.66552466  0.43146932  0.07475680     0.08000
N954        N  0.67743656  0.35115720  0.06809333    -0.35800
N955        N  0.69241839  0.34906531  0.06961919    -0.28000
C956        C  0.69529507  0.33392993  0.07115119    -0.03200
C957        C  0.68148234  0.32604629  0.07040638     0.05400
C958        C  0.67038926  0.33737180  0.06861224     0.03500
H959        H  0.70655530  0.32908069  0.07330212     0.08600
H960        H  0.65804611  0.33577560  0.06851346     0.07400
N961        N  0.66260240  0.11440141  0.30894678    -0.27000
N962        N  0.67712125  0.11415399  0.30443565    -0.34800
C963        C  0.67780103  0.11769585  0.28941016     0.01400
C964        C  0.66303289  0.12050829  0.28422335     0.07400
C965        C  0.65363963  0.11813068  0.29687302    -0.05700
H966        H  0.68831988  0.11851006  0.28280933     0.08000
H967        H  0.64124664  0.11918605  0.29730856     0.09200
Cu968      Cu  0.69549841  0.11001766  0.31905465     0.44200
Cu969      Cu  0.65599916  0.11038926  0.33154523     0.42000
Cu970      Cu  0.68731039  0.10710221  0.35954847     0.43900
N971        N  0.71237457  0.10795860  0.33576991    -0.34400
N972        N  0.70949502  0.10732157  0.35067175    -0.28600
C973        C  0.72293421  0.10712200  0.35838077    -0.04700
C974        C  0.73486367  0.10736388  0.34778124     0.07500
C975        C  0.72766820  0.10805568  0.33358862     0.01300
H976        H  0.72392339  0.10726119  0.37077900     0.08900
H977        H  0.73316884  0.10893813  0.32246399     0.08000
N978        N  0.66408528  0.10632355  0.36515080    -0.35800
N979        N  0.65278094  0.10732900  0.35501805    -0.28000
C980        C  0.63924629  0.10670089  0.36248811    -0.03200
C981        C  0.64214260  0.10508818  0.37806063     0.05400
C982        C  0.65801443  0.10505326  0.37931826     0.03500
H983        H  0.62817534  0.10802576  0.35699277     0.08600
H984        H  0.66467288  0.10431269  0.38980122     0.07400
N985        N  0.95066804  0.36341845  0.30923298    -0.27000
N986        N  0.94950736  0.37729027  0.31533149    -0.34800
C987        C  0.94693255  0.38759056  0.30411344     0.01400
C988        C  0.94659921  0.37983606  0.29023586     0.07400
C989        C  0.94881504  0.36448797  0.29392124    -0.05700
H990        H  0.94462928  0.39966996  0.30606605     0.08000
H991        H  0.94867345  0.35478868  0.28611428     0.09200
Cu992      Cu  0.95000339  0.38130571  0.33869962     0.44200
Cu993      Cu  0.95306592  0.34381831  0.32245992     0.42000
Cu994      Cu  0.95095450  0.34861667  0.36443087     0.43900
N995        N  0.94912686  0.38319237  0.36232973    -0.34400
N996        N  0.94947824  0.37139975  0.37194410    -0.28600
C997        C  0.94801879  0.37678184  0.38641785    -0.04700
C998        C  0.94640219  0.39267095  0.38575476     0.07500
C999        C  0.94742621  0.39629730  0.37032245     0.01300
H1000       H  0.94777512  0.36965224  0.39661861     0.08900
H1001       H  0.94680368  0.40765255  0.36522807     0.08000
N1002       N  0.95061144  0.32744402  0.35306447    -0.35800
N1003       N  0.95164426  0.32585674  0.33796194    -0.28000
C1004       C  0.94966023  0.31097190  0.33424719    -0.03200
C1005       C  0.94699910  0.30278709  0.34757450     0.05400
C1006       C  0.94789444  0.31352062  0.35932656     0.03500
H1007       H  0.94923904  0.30659282  0.32260933     0.08600
H1008       H  0.94598847  0.31147463  0.37144922     0.07400
N1009       N  0.17963810  0.42942034  0.16695581    -0.27000
N1010       N  0.16530721  0.43204565  0.16262889    -0.34800
C1011       C  0.15600474  0.43094350  0.17489025     0.01400
C1012       C  0.16491744  0.42763203  0.18760135     0.07400
C1013       C  0.17984153  0.42665323  0.18216413    -0.05700
H1014       H  0.14358716  0.43165125  0.17443029     0.08000
H1015       H  0.18991051  0.42312225  0.18857005     0.09200
Cu1016     Cu  0.15866380  0.43523094  0.14014063     0.44200
Cu1017     Cu  0.19776076  0.42753488  0.15160707     0.42000
Cu1018     Cu  0.18826365  0.43273436  0.11123490     0.43900
N1019       N  0.15451427  0.43777491  0.11698118    -0.34400
N1020       N  0.16534502  0.43710095  0.10635004    -0.28600
C1021       C  0.15878015  0.43858044  0.09244035    -0.04700
C1022       C  0.14308452  0.44040524  0.09445644     0.07500
C1023       C  0.14078488  0.43963131  0.11016261     0.01300
H1024       H  0.16491237  0.43788729  0.08163801     0.08900
H1025       H  0.12988760  0.43978959  0.11617201     0.08000
N1026       N  0.20988205  0.42650082  0.11912706    -0.35800
N1027       N  0.21332892  0.42461412  0.13380597    -0.28000
C1028       C  0.22812560  0.42028341  0.13500725    -0.03200
C1029       C  0.23427278  0.41918984  0.12035185     0.05400
C1030       C  0.22239581  0.42339132  0.11060242     0.03500
H1031       H  0.23395340  0.41846209  0.14581709     0.08600
H1032       H  0.22276757  0.42395333  0.09818067     0.07400
N1033       N  0.45311470  0.14984277  0.16050902    -0.27000
N1034       N  0.45094047  0.16463779  0.16342603    -0.34800
C1035       C  0.44924428  0.16656176  0.17867491     0.01400
C1036       C  0.45047847  0.15231214  0.18568154     0.07400
C1037       C  0.45273659  0.14195921  0.17381900    -0.05700
H1038       H  0.44682437  0.17745619  0.18420764     0.08000
H1039       H  0.45385600  0.12958433  0.17477804     0.09200
Cu1040     Cu  0.44930342  0.18147585  0.14657775     0.44200
Cu1041     Cu  0.45628024  0.14090245  0.13860577     0.42000
Cu1042     Cu  0.45162716  0.16805655  0.10743463     0.43900
N1043       N  0.44675534  0.19573869  0.12761224    -0.34400
N1044       N  0.44724409  0.19071819  0.11327465    -0.28600
C1045       C  0.44491142  0.20262368  0.10366500    -0.04700
C1046       C  0.44312714  0.21581169  0.11237461     0.07500
C1047       C  0.44418202  0.21101256  0.12751203     0.01300
H1048       H  0.44467249  0.20176433  0.09125810     0.08900
H1049       H  0.44300808  0.21807377  0.13769262     0.08000
N1050       N  0.45782139  0.14527804  0.10430833    -0.35800
N1051       N  0.45962170  0.13530287  0.11564881    -0.28000
C1052       C  0.46371677  0.12159444  0.10970208    -0.03200
C1053       C  0.46471582  0.12310032  0.09387137     0.05400
C1054       C  0.46070807  0.13821832  0.09087557     0.03500
H1055       H  0.46551254  0.11122920  0.11637523     0.08600
H1056       H  0.45985068  0.14367385  0.07972235     0.07400
N1057       N  0.21212353  0.13308078  0.37067675    -0.27000
N1058       N  0.21430614  0.14814794  0.37057433    -0.34800
C1059       C  0.22945566  0.15106918  0.37156484     0.01400
C1060       C  0.23716780  0.13716415  0.37256756     0.07400
C1061       C  0.22583256  0.12600908  0.37174161    -0.05700
H1062       H  0.23449376  0.16246309  0.37125762     0.08000
H1063       H  0.22744147  0.11365121  0.37177982     0.09200
Cu1064     Cu  0.19671543  0.16405218  0.36862943     0.44200
Cu1065     Cu  0.19070933  0.12278580  0.36887574     0.42000
Cu1066     Cu  0.15852866  0.14885071  0.36339119     0.43900
N1067       N  0.17743912  0.17766980  0.36568158    -0.34400
N1068       N  0.16342459  0.17213349  0.36365841    -0.28600
C1069       C  0.15358799  0.18391605  0.36165667    -0.04700
C1070       C  0.16189870  0.19748731  0.36227459     0.07500
C1071       C  0.17692189  0.19311364  0.36504299     0.01300
H1072       H  0.14133803  0.18268629  0.35983083     0.08900
H1073       H  0.18679654  0.20060208  0.36625966     0.08000
N1074       N  0.15656528  0.12513642  0.36363692    -0.35800
N1075       N  0.16818894  0.11558926  0.36593093    -0.28000
C1076       C  0.16284031  0.10105033  0.36599506    -0.03200
C1077       C  0.14716685  0.10152361  0.36334982     0.05400
C1078       C  0.14355463  0.11695722  0.36206063     0.03500
H1079       H  0.16981678  0.09091038  0.36790902     0.08600
H1080       H  0.13224182  0.12193953  0.36063378     0.07400
N1081       N  0.37622978  0.11939741  0.36239712    -0.27000
N1082       N  0.37306656  0.12140871  0.34767403    -0.34800
C1083       C  0.35778309  0.12286685  0.34597349     0.01400
C1084       C  0.35096365  0.12156746  0.36029272     0.07400
C1085       C  0.36303830  0.11958120  0.37047575    -0.05700
H1086       H  0.35205777  0.12492620  0.33512078     0.08000
H1087       H  0.36233610  0.11865699  0.38286162     0.09200
Cu1088     Cu  0.38963922  0.12279464  0.33062122     0.44200
Cu1089     Cu  0.39833149  0.11662803  0.37071694     0.42000
Cu1090     Cu  0.42897682  0.11647916  0.34220339     0.43900
N1091       N  0.40822545  0.12492799  0.31587454    -0.34400
N1092       N  0.42264644  0.12260638  0.32007966    -0.28600
C1093       C  0.43194280  0.12555190  0.30806911    -0.04700
C1094       C  0.42294305  0.13016424  0.29577307     0.07500
C1095       C  0.40794639  0.12937163  0.30107805     0.01300
H1096       H  0.44435499  0.12469445  0.30835877     0.08900
H1097       H  0.39757902  0.13192489  0.29468572     0.08000
N1098       N  0.43242287  0.11303769  0.36551228    -0.35800
N1099       N  0.42131191  0.11334822  0.37589305    -0.28000
C1100       C  0.42749324  0.11167170  0.38995613    -0.03200
C1101       C  0.44325462  0.11046817  0.38835509     0.05400
C1102       C  0.44597307  0.11114114  0.37270013     0.03500
H1103       H  0.42102688  0.11173947  0.40058467     0.08600
H1104       H  0.45701248  0.11063791  0.36697625     0.07400
N1105       N  0.13026244  0.36774114  0.30881349    -0.27000
N1106       N  0.12862945  0.38187204  0.31419662    -0.34800
C1107       C  0.12990769  0.39193233  0.30253528     0.01400
C1108       C  0.13228869  0.38370347  0.28913541     0.07400
C1109       C  0.13264726  0.36841034  0.29356791    -0.05700
H1110       H  0.12960866  0.40432774  0.30379700     0.08000
H1111       H  0.13474819  0.35852066  0.28629861     0.09200
Cu1112     Cu  0.12565551  0.38682114  0.33720363     0.44200
Cu1113     Cu  0.12981657  0.34835146  0.32255947     0.42000
Cu1114     Cu  0.12396896  0.35429062  0.36334178     0.43900
N1115       N  0.12379584  0.38884637  0.36076654    -0.34400
N1116       N  0.12319469  0.37701501  0.37031633    -0.28600
C1117       C  0.12276614  0.38229457  0.38482736    -0.04700
C1118       C  0.12288509  0.39820340  0.38434022     0.07500
C1119       C  0.12373495  0.40196752  0.36892612     0.01300
H1120       H  0.12266267  0.37508614  0.39497669     0.08900
H1121       H  0.12470727  0.41338113  0.36401831     0.08000
N1122       N  0.12682599  0.33286919  0.35342273    -0.35800
N1123       N  0.12918129  0.33077960  0.33855546    -0.28000
C1124       C  0.13171309  0.31576235  0.33590990    -0.03200
C1125       C  0.13070393  0.30800962  0.34973927     0.05400
C1126       C  0.12773174  0.31920386  0.36064042     0.03500
H1127       H  0.13448396  0.31090175  0.32479673     0.08600
H1128       H  0.12692396  0.31763011  0.37295471     0.07400
N1129       N  0.36094525  0.37498641  0.07945012    -0.27000
N1130       N  0.36461105  0.38967113  0.07783540    -0.34800
C1131       C  0.35214330  0.39837054  0.08060613     0.01400
C1132       C  0.33995180  0.38870958  0.08392616     0.07400
C1133       C  0.34598167  0.37395193  0.08326659    -0.05700
H1134       H  0.35199814  0.41083049  0.08035132     0.08000
H1135       H  0.34004349  0.36328941  0.08577566     0.09200
Cu1136     Cu  0.38635783  0.39731957  0.07214020     0.44200
Cu1137     Cu  0.37680791  0.35725610  0.07731116     0.42000
Cu1138     Cu  0.41580576  0.36853921  0.06698734     0.43900
N1139       N  0.40857110  0.40234421  0.06544203    -0.34400
N1140       N  0.41933501  0.39181629  0.06331505    -0.28600
C1141       C  0.43256418  0.39887406  0.05952735    -0.04700
C1142       C  0.42993215  0.41459087  0.05913266     0.07500
C1143       C  0.41464391  0.41637348  0.06310993     0.01300
H1144       H  0.44345003  0.39305551  0.05790818     0.08900
H1145       H  0.40850042  0.42709977  0.06465605     0.08000
N1146       N  0.40946078  0.34628137  0.07266736    -0.35800
N1147       N  0.39530057  0.34216587  0.07641883    -0.28000
C1148       C  0.39527759  0.32716582  0.08026937    -0.03200
C1149       C  0.41007803  0.32154375  0.07867918     0.05400
C1150       C  0.41880092  0.33401316  0.07400207     0.03500
H1151       H  0.38528489  0.32088727  0.08423796     0.08600
H1152       H  0.43110926  0.33427200  0.07217252     0.07400
O1153       O  0.55006776  0.52822166  0.08662804    -0.72600
O1154       O  0.51917215  0.49488531  0.07920891    -0.73600
O1155       O  0.55172371  0.49596043  0.08223329    -0.62200
O1156       O  0.51777437  0.52719187  0.08372769    -0.70700
O1157       O  0.52053482  0.53117441  0.05864130    -0.70200
O1158       O  0.55359003  0.49909568  0.05698448    -0.61500
O1159       O  0.52099484  0.49900365  0.05407076    -0.74000
O1160       O  0.55273737  0.53131147  0.06140845    -0.72700
Cu1161     Cu  0.53460541  0.51137181  0.08383673     1.04600
Cu1162     Cu  0.53703542  0.51520136  0.05689259     1.04300
C1163       C  0.55609318  0.53515674  0.07516148     0.93600
C1164       C  0.51489439  0.49203437  0.06545402     0.92700
C1165       C  0.55822819  0.49282136  0.06943648     0.84800
C1166       C  0.51418555  0.53445263  0.07147128     0.91100
O1167       O  0.12611326  0.51398915  0.50676728    -0.72600
O1168       O  0.12285632  0.48047655  0.47530943    -0.73600
O1169       O  0.12536045  0.48131814  0.50748624    -0.62200
O1170       O  0.12350408  0.51299601  0.47403973    -0.70700
O1171       O  0.14895437  0.51275143  0.47252413    -0.70200
O1172       O  0.15078942  0.48048381  0.50518532    -0.61500
O1173       O  0.14831452  0.48030648  0.47292849    -0.74000
O1174       O  0.15155449  0.51309977  0.50498867    -0.72700
Cu1175     Cu  0.12355788  0.49727307  0.49099419     1.04600
Cu1176     Cu  0.15078760  0.49668160  0.48886291     1.04300
C1177       C  0.13937448  0.51881476  0.51088883     0.93600
C1178       C  0.13510004  0.47506390  0.46927286     0.92700
C1179       C  0.13833715  0.47551336  0.51118431     0.84800
C1180       C  0.13595687  0.51785930  0.46794755     0.91100
O1181       O  0.53218076  0.09237580  0.50715241    -0.72600
O1182       O  0.56305527  0.09205961  0.47280443    -0.73600
O1183       O  0.56471831  0.09332802  0.50542358    -0.62200
O1184       O  0.53045808  0.09088476  0.47470517    -0.70700
O1185       O  0.52898752  0.11643657  0.47442840    -0.70200
O1186       O  0.56467414  0.11885173  0.50367030    -0.61500
O1187       O  0.56153078  0.11749995  0.47114966    -0.74000
O1188       O  0.53222507  0.11795961  0.50667016    -0.72700
Cu1189     Cu  0.54765347  0.09126618  0.49003831     1.04600
Cu1190     Cu  0.54683922  0.11858386  0.48892038     1.04300
C1191       C  0.52751149  0.10528310  0.51243870     0.93600
C1192       C  0.56713389  0.10471930  0.46650397     0.92700
C1193       C  0.57015168  0.10642048  0.50933327     0.84800
C1194       C  0.52408140  0.10327474  0.47004390     0.91100
O1195       O  0.95996768  0.48176049  0.50456118    -0.72600
O1196       O  0.95489516  0.51322126  0.47111262    -0.73600
O1197       O  0.95776991  0.51430089  0.50353832    -0.62200
O1198       O  0.95683570  0.48041473  0.47198420    -0.70700
O1199       O  0.93146588  0.47923416  0.47407374    -0.70200
O1200       O  0.93250417  0.51236951  0.50612771    -0.61500
O1201       O  0.92954433  0.51195670  0.47364676    -0.74000
O1202       O  0.93467322  0.47975033  0.50673867    -0.72700
Cu1203     Cu  0.95824127  0.49745256  0.48768472     1.04600
Cu1204     Cu  0.93116763  0.49575072  0.49020766     1.04300
C1205       C  0.94818111  0.47586168  0.51108093     0.93600
C1206       C  0.94145529  0.51766473  0.46715915     0.92700
C1207       C  0.94523847  0.51871946  0.50981621     0.84800
C1208       C  0.94398416  0.47434121  0.46815685     0.91100
O1209       O  0.55775864  0.96572484  0.51180476    -0.72600
O1210       O  0.52726036  0.96401891  0.47716638    -0.73600
O1211       O  0.52516643  0.96744433  0.50951591    -0.62200
O1212       O  0.55974572  0.96244650  0.47948439    -0.70700
O1213       O  0.55877277  0.93705247  0.48251327    -0.70200
O1214       O  0.52344760  0.94201063  0.51151821    -0.61500
O1215       O  0.52647751  0.93851789  0.47929669    -0.74000
O1216       O  0.55567751  0.94037030  0.51462349    -0.72700
Cu1217     Cu  0.54252744  0.96581886  0.49439869     1.04600
Cu1218     Cu  0.54102828  0.93860970  0.49706896     1.04300
C1219       C  0.56140663  0.95326384  0.51872499     0.93600
C1220       C  0.52211871  0.95094724  0.47279134     0.92700
C1221       C  0.51893139  0.95547616  0.51535303     0.84800
C1222       C  0.56483809  0.94899286  0.47644380     0.91100
O1223       O  0.52220320  0.49868549  0.92778576    -0.72600
O1224       O  0.55457748  0.53149072  0.92591781    -0.73600
O1225       O  0.52201129  0.53141387  0.92526947    -0.62200
O1226       O  0.55478313  0.49891158  0.92834602    -0.70700
O1227       O  0.55481630  0.49693834  0.90287863    -0.70200
O1228       O  0.52243600  0.52941753  0.89985082    -0.61500
O1229       O  0.55492862  0.52952707  0.90046626    -0.74000
O1230       O  0.52240333  0.49700096  0.90229955    -0.72700
Cu1231     Cu  0.53836511  0.51520094  0.92773964     1.04600
Cu1232     Cu  0.53867424  0.51316497  0.90049948     1.04300
C1233       C  0.51734091  0.49256592  0.91534353     0.93600
C1234       C  0.55975739  0.53576734  0.91285791     0.92700
C1235       C  0.51715250  0.53563487  0.91205538     0.84800
C1236       C  0.55976391  0.49265279  0.91602363     0.91100
O1237       O  0.03033804  0.98131323  0.38613861    -0.72600
O1238       O  0.06262629  0.01406937  0.38322439    -0.73600
O1239       O  0.03007501  0.01359047  0.38085499    -0.62200
O1240       O  0.06290742  0.98175311  0.38846215    -0.70700
O1241       O  0.06425962  0.97741518  0.36334688    -0.70200
O1242       O  0.03228746  0.00980224  0.35571420    -0.61500
O1243       O  0.06478929  0.00961033  0.35816537    -0.74000
O1244       O  0.03180357  0.97763201  0.36090855    -0.72700
Cu1245     Cu  0.04641908  0.99783178  0.38556423     1.04600
Cu1246     Cu  0.04835201  0.99347980  0.35866726     1.04300
C1247       C  0.02600056  0.97430837  0.37397699     0.93600
C1248       C  0.06893169  0.01684192  0.37025614     0.92700
C1249       C  0.02617320  0.01685309  0.36705912     0.84800
C1250       C  0.06856506  0.97438562  0.37706244     0.91100
O1251       O  0.02729843  0.98609197  0.60393617    -0.72600
O1252       O  0.06079325  0.01777091  0.60589284    -0.73600
O1253       O  0.02828020  0.01869161  0.60443505    -0.62200
O1254       O  0.05985713  0.98507333  0.60550964    -0.70700
O1255       O  0.06067229  0.98524553  0.57998293    -0.70200
O1256       O  0.02965863  0.01933697  0.57895090    -0.61500
O1257       O  0.06211142  0.01798741  0.58041176    -0.74000
O1258       O  0.02822089  0.98681070  0.57842838    -0.72700
Cu1259     Cu  0.04404181  0.00188914  0.60583996     1.04600
Cu1260     Cu  0.04524379  0.00234442  0.57855388     1.04300
C1261       C  0.02229039  0.98168255  0.59084889     0.93600
C1262       C  0.06655028  0.02307530  0.59345598     0.92700
C1263       C  0.02410693  0.02441590  0.59156336     0.84800
C1264       C  0.06499076  0.97965184  0.59286883     0.91100
O1265       O  0.47676519  0.99868900  0.01017148    -0.72600
O1266       O  0.47879461  0.03220427  0.97877203    -0.73600
O1267       O  0.48016748  0.03106701  0.01118192    -0.62200
O1268       O  0.47536553  0.99988067  0.97747924    -0.70700
O1269       O  0.44994319  0.00212099  0.97878162    -0.70200
O1270       O  0.45475090  0.03334626  0.01245001    -0.61500
O1271       O  0.45341370  0.03468997  0.97983388    -0.74000
O1272       O  0.45137101  0.00096108  0.01131045    -0.72700
Cu1273     Cu  0.47864511  0.01533645  0.99435661     1.04600
Cu1274     Cu  0.45146714  0.01787264  0.99562413     1.04300
C1275       C  0.46384291  0.99467304  0.01587913     0.93600
C1276       C  0.46644645  0.03886978  0.97444493     0.92700
C1277       C  0.46816892  0.03706099  0.01716829     0.84800
C1278       C  0.46195099  0.99617119  0.97276630     0.91100
O1279       O  0.05487454  0.42373386  0.00908130    -0.72600
O1280       O  0.02114303  0.42453704  0.97749258    -0.73600
O1281       O  0.05356828  0.42105361  0.97674065    -0.62200
O1282       O  0.02266810  0.42688717  0.00999158    -0.70700
O1283       O  0.02554291  0.45227717  0.00855928    -0.70200
O1284       O  0.05570734  0.44641354  0.97402121    -0.61500
O1285       O  0.02325948  0.44998622  0.97598602    -0.74000
O1286       O  0.05776306  0.44901861  0.00635671    -0.72700
Cu1287     Cu  0.03794773  0.42317141  0.99336205     1.04600
Cu1288     Cu  0.04063025  0.45032716  0.99112115     1.04300
C1289       C  0.06171194  0.43629059  0.01255026     0.93600
C1290       C  0.01673240  0.43744573  0.97195576     0.92700
C1291       C  0.05969003  0.43274267  0.97029481     0.84800
C1292       C  0.01957350  0.44038991  0.01486393     0.91100
O1293       O  0.61058950  0.03239599  0.00344581    -0.72600
O1294       O  0.60713728  0.99799217  0.97305828    -0.73600
O1295       O  0.60969162  0.99989694  0.00568939    -0.62200
O1296       O  0.60820580  0.03040860  0.97105635    -0.70700
O1297       O  0.63371811  0.03000297  0.96960642    -0.70200
O1298       O  0.63509818  0.99872233  0.00332348    -0.61500
O1299       O  0.63256413  0.99747748  0.97087470    -0.74000
O1300       O  0.63607069  0.03134545  0.00199817    -0.72700
Cu1301     Cu  0.60801146  0.01517223  0.98840291     1.04600
Cu1302     Cu  0.63525383  0.01432186  0.98640732     1.04300
C1303       C  0.62381693  0.03745741  0.00733980     0.93600
C1304       C  0.61929852  0.99261958  0.96681036     0.92700
C1305       C  0.62268341  0.99446608  0.00990278     0.84800
C1306       C  0.62073958  0.03500770  0.96490485     0.91100
O1307       O  0.05183945  0.64388892  0.97541413    -0.72600
O1308       O  0.01870825  0.64626706  0.00731447    -0.73600
O1309       O  0.05126052  0.64506713  0.00792969    -0.62200
O1310       O  0.01918611  0.64493530  0.97472574    -0.70700
O1311       O  0.01883169  0.61935436  0.97531017    -0.70200
O1312       O  0.05003613  0.61954889  0.00909751    -0.61500
O1313       O  0.01745650  0.62070682  0.00779934    -0.74000
O1314       O  0.05131887  0.61834248  0.97671953    -0.72700
Cu1315     Cu  0.03527216  0.64594468  0.99131740     1.04600
Cu1316     Cu  0.03436675  0.61859976  0.99228250     1.04300
C1317       C  0.05680207  0.63075246  0.97104884     0.93600
C1318       C  0.01274298  0.63384840  0.01243249     0.92700
C1319       C  0.05584799  0.63228441  0.01358601     0.84800
C1320       C  0.01397393  0.63208553  0.96979667     0.91100
C1321       C  0.47765386  0.47369800  0.05223009    -0.22200
C1322       C  0.47856092  0.45938054  0.05956431     0.09800
C1323       C  0.49164394  0.45554939  0.06834777     0.10200
C1324       C  0.50346188  0.46639357  0.06997815    -0.17100
C1325       C  0.50254559  0.48079932  0.06275496    -0.27500
C1326       C  0.48953967  0.48450819  0.05370002     0.18500
C1327       C  0.46532157  0.44883182  0.05864651     0.12500
C1328       C  0.49302871  0.44007058  0.07606481    -0.11900
H1329       H  0.51346317  0.46363454  0.07689738     0.12800
C1330       C  0.48780759  0.50007104  0.04618664    -0.22700
H1331       H  0.46746876  0.47650482  0.04560640     0.08400
C1332       C  0.45351760  0.44934705  0.06972945     0.04800
C1333       C  0.44176462  0.43834268  0.06919525    -0.19900
C1334       C  0.44158134  0.42687071  0.05782279    -0.12200
C1335       C  0.45298972  0.42693471  0.04619589     0.13500
C1336       C  0.46484657  0.43785682  0.04687724    -0.22600
C1337       C  0.45352317  0.46132034  0.08227447    -0.05700
H1338       H  0.43297779  0.43836613  0.07803774     0.15000
C1339       C  0.45284265  0.41601653  0.03272746    -0.15900
H1340       H  0.47383024  0.43777317  0.03822596     0.09300
H1341       H  0.47656239  0.50122707  0.04023617     0.07200
H1342       H  0.49698215  0.50176713  0.03748265     0.08400
H1343       H  0.48855407  0.50928350  0.05501578     0.07400
H1344       H  0.49258056  0.43081161  0.06727339     0.02300
H1345       H  0.48343634  0.43844275  0.08432831     0.02800
H1346       H  0.50402676  0.43894275  0.08246309     0.06300
H1347       H  0.44345144  0.46004987  0.09002908     0.05300
H1348       H  0.45311184  0.47300531  0.07710053    -0.00500
H1349       H  0.46411298  0.46023800  0.08931876     0.01000
H1350       H  0.45300113  0.42273459  0.02185918     0.04600
H1351       H  0.44248542  0.40860818  0.03237895     0.06600
H1352       H  0.46321098  0.40856296  0.03312754     0.07500
C1353       C  0.11736030  0.43260828  0.41062558    -0.22200
C1354       C  0.12857183  0.42965404  0.42177981     0.09800
C1355       C  0.13736255  0.41604296  0.42106148     0.10200
C1356       C  0.13490931  0.40574557  0.40890555    -0.17100
C1357       C  0.12391842  0.40884235  0.39748296    -0.27500
C1358       C  0.11477817  0.42229790  0.39853730     0.18500
C1359       C  0.13088619  0.44106937  0.43408870     0.12500
C1360       C  0.14954449  0.41260827  0.43289415    -0.11900
H1361       H  0.14189881  0.39543912  0.40807618     0.12800
C1362       C  0.10187570  0.42595868  0.38754366    -0.22700
H1363       H  0.11048864  0.44300413  0.41144469     0.08400
C1364       C  0.13923175  0.45473555  0.43141940     0.04800
C1365       C  0.14073721  0.46547373  0.44332425    -0.19900
C1366       C  0.13396841  0.46284875  0.45771365    -0.12200
C1367       C  0.12598936  0.44892680  0.46052535     0.13500
C1368       C  0.12441718  0.43825556  0.44856330    -0.22600
C1369       C  0.14650819  0.45796665  0.41603091    -0.05700
H1370       H  0.14691617  0.47613655  0.44129895     0.15000
C1371       C  0.11944677  0.44470797  0.47603046    -0.15900
H1372       H  0.11816839  0.42762431  0.45054312     0.09300
H1373       H  0.10463605  0.43666095  0.38111795     0.07200
H1374       H  0.09108502  0.42779086  0.39412943     0.08400
H1375       H  0.09954439  0.41661883  0.37921441     0.07400
H1376       H  0.14421951  0.41170313  0.44445686     0.02300
H1377       H  0.15822887  0.42198872  0.43297867     0.02800
H1378       H  0.15556502  0.40159538  0.43044588     0.06300
H1379       H  0.15281322  0.46909633  0.41600443     0.05300
H1380       H  0.13750548  0.45852477  0.40700225    -0.00500
H1381       H  0.15478970  0.44866750  0.41315837     0.01000
H1382       H  0.10677243  0.44342931  0.47512497     0.04600
H1383       H  0.12202316  0.45329126  0.48508655     0.06600
H1384       H  0.12444487  0.43357571  0.47985793     0.07500
C1385       C  0.47846672  0.11601699  0.41361700    -0.22200
C1386       C  0.47620798  0.10442037  0.42456210     0.09800
C1387       C  0.46298443  0.09506387  0.42383044     0.10200
C1388       C  0.45232213  0.09745019  0.41195013    -0.17100
C1389       C  0.45466011  0.10895047  0.40082187    -0.27500
C1390       C  0.46778422  0.11857223  0.40185097     0.18500
C1391       C  0.48788546  0.10256320  0.43674941     0.12500
C1392       C  0.46028856  0.08246619  0.43542451    -0.11900
H1393       H  0.44223079  0.09015140  0.41119262     0.12800
C1394       C  0.47066613  0.13206220  0.39130482    -0.22700
H1395       H  0.48856166  0.12331822  0.41443455     0.08400
C1396       C  0.50191402  0.09495405  0.43383988     0.04800
C1397       C  0.51334724  0.09488151  0.44520504    -0.19900
C1398       C  0.51106611  0.10238949  0.45929213    -0.12200
C1399       C  0.49669513  0.10934020  0.46249539     0.13500
C1400       C  0.48530896  0.10945107  0.45108266    -0.22600
C1401       C  0.50485131  0.08710410  0.41867946    -0.05700
H1402       H  0.52431298  0.08940006  0.44289804     0.15000
C1403       C  0.49285805  0.11642544  0.47785563    -0.15900
H1404       H  0.47441350  0.11511371  0.45329818     0.09300
H1405       H  0.48125639  0.12995567  0.38448725     0.07200
H1406       H  0.47231521  0.14264615  0.39828344     0.08400
H1407       H  0.46104671  0.13444710  0.38334350     0.07400
H1408       H  0.45946109  0.08748879  0.44712945     0.02300
H1409       H  0.46997909  0.07414325  0.43509200     0.02800
H1410       H  0.44947307  0.07607887  0.43306031     0.06300
H1411       H  0.51634760  0.08153345  0.41837772     0.05300
H1412       H  0.50433821  0.09564767  0.40919797    -0.00500
H1413       H  0.49600807  0.07808677  0.41671988     0.01000
H1414       H  0.49041984  0.12888723  0.47634973     0.04600
H1415       H  0.50217924  0.11513394  0.48644311     0.06600
H1416       H  0.48247406  0.11073137  0.48266074     0.07500
C1417       C  0.10613763  0.03780505  0.36122938    -0.22200
C1418       C  0.10277814  0.05248929  0.36694573     0.09800
C1419       C  0.08838246  0.05541534  0.37381188     0.10200
C1420       C  0.07764247  0.04342785  0.37496048    -0.17100
C1421       C  0.08095368  0.02869868  0.36921005    -0.27500
C1422       C  0.09545372  0.02577767  0.36239275     0.18500
C1423       C  0.11464272  0.06458484  0.36588090     0.12500
C1424       C  0.08433978  0.07120316  0.37976122    -0.11900
H1425       H  0.06650111  0.04561573  0.38012247     0.12800
C1426       C  0.10034362  0.01007564  0.35680410    -0.22700
H1427       H  0.11729731  0.03565280  0.35608642     0.08400
C1428       C  0.12530177  0.06696450  0.37786393     0.04800
C1429       C  0.13606688  0.07891467  0.37656786    -0.19900
C1430       C  0.13629291  0.08851416  0.36359876    -0.12200
C1431       C  0.12597053  0.08574003  0.35134754     0.13500
C1432       C  0.11520811  0.07377802  0.35266774    -0.22600
C1433       C  0.12524047  0.05693173  0.39200173    -0.05700
H1434       H  0.14411669  0.08100347  0.38585489     0.15000
C1435       C  0.12659728  0.09499664  0.33669930    -0.15900
H1436       H  0.10712961  0.07161938  0.34342112     0.09300
H1437       H  0.11116032  0.00666150  0.36268098     0.07200
H1438       H  0.10246419  0.01050791  0.34422381     0.08400
H1439       H  0.09179585  0.00092786  0.35917273     0.07400
H1440       H  0.08485774  0.07968181  0.37021609     0.02300
H1441       H  0.09257666  0.07467985  0.38886627     0.02800
H1442       H  0.07257052  0.07151190  0.38472197     0.06300
H1443       H  0.13437142  0.06035205  0.40025335     0.05300
H1444       H  0.12723583  0.04475075  0.38867039    -0.00500
H1445       H  0.11398105  0.05783862  0.39794266     0.01000
H1446       H  0.11828951  0.09064716  0.32802323     0.04600
H1447       H  0.13831058  0.09428091  0.33165731     0.06600
H1448       H  0.12371208  0.10720695  0.33902665     0.07500
C1449       C  0.27997516  0.14073277  0.38113010    -0.22200
C1450       C  0.28600098  0.13020232  0.37054386     0.09800
C1451       C  0.27599645  0.12153005  0.36118334     0.10200
C1452       C  0.26009408  0.12384468  0.36238472    -0.17100
C1453       C  0.25397623  0.13463392  0.37273625    -0.27500
C1454       C  0.26404843  0.14292604  0.38252902     0.18500
C1455       C  0.30285226  0.12877253  0.36893348     0.12500
C1456       C  0.28214978  0.11007155  0.34971723    -0.11900
H1457       H  0.25240933  0.11746399  0.35491825     0.12800
C1458       C  0.25852848  0.15370059  0.39494898    -0.22700
H1459       H  0.28776350  0.14721665  0.38840768     0.08400
C1460       C  0.31111222  0.13864654  0.35909148     0.04800
C1461       C  0.32681601  0.13601111  0.35667757    -0.19900
C1462       C  0.33446119  0.12368909  0.36383190    -0.12200
C1463       C  0.32612649  0.11382453  0.37382681     0.13500
C1464       C  0.31044725  0.11668209  0.37641090    -0.22600
C1465       C  0.30327010  0.15179981  0.35094896    -0.05700
H1466       H  0.33317262  0.14361936  0.34910415     0.15000
C1467       C  0.33294841  0.09969219  0.38124988    -0.15900
H1468       H  0.30392953  0.10903509  0.38381773     0.09300
H1469       H  0.26235629  0.16561520  0.39231961     0.07200
H1470       H  0.26353290  0.15014227  0.40614806     0.08400
H1471       H  0.24589356  0.15366010  0.39642525     0.07400
H1472       H  0.28878026  0.10099455  0.35579134     0.02300
H1473       H  0.28979639  0.11599854  0.34137503     0.02800
H1474       H  0.27275822  0.10438970  0.34317827     0.06300
H1475       H  0.31139912  0.15835269  0.34357860     0.05300
H1476       H  0.29833033  0.15986856  0.35952854    -0.00500
H1477       H  0.29390088  0.14730733  0.34352497     0.01000
H1478       H  0.33295189  0.10112254  0.39393445     0.04600
H1479       H  0.34478752  0.09713677  0.37739837     0.06600
H1480       H  0.32585806  0.08947399  0.37827736     0.07500
C1481       C  0.14279366  0.23395881  0.34740771    -0.22200
C1482       C  0.14699797  0.24441019  0.35891211     0.09800
C1483       C  0.15554864  0.23934666  0.37169571     0.10200
C1484       C  0.16009321  0.22388547  0.37249113    -0.17100
C1485       C  0.15616715  0.21340038  0.36084514    -0.27500
C1486       C  0.14739350  0.21850438  0.34809103     0.18500
C1487       C  0.14302568  0.26078900  0.35686559     0.12500
C1488       C  0.15991689  0.25028557  0.38440763    -0.11900
H1489       H  0.16677245  0.21994222  0.38225487     0.12800
C1490       C  0.14334438  0.20837925  0.33459949    -0.22700
H1491       H  0.13631033  0.23803034  0.33755720     0.08400
C1492       C  0.15292879  0.27083889  0.34886355     0.04800
C1493       C  0.14851335  0.28619315  0.34672549    -0.19900
C1494       C  0.13445858  0.29169775  0.35244107    -0.12200
C1495       C  0.12450566  0.28156871  0.36043687     0.13500
C1496       C  0.12899968  0.26621209  0.36261887    -0.22600
C1497       C  0.16811318  0.26533442  0.34256119    -0.05700
H1498       H  0.15612456  0.29399358  0.34064539     0.15000
C1499       C  0.10886322  0.28627425  0.36625309    -0.15900
H1500       H  0.12140462  0.25833417  0.36862455     0.09300
H1501       H  0.14767170  0.21374998  0.32384466     0.07200
H1502       H  0.13065004  0.20722589  0.33379403     0.08400
H1503       H  0.14843965  0.19673523  0.33523310     0.07400
H1504       H  0.14936352  0.25520682  0.38965349     0.02300
H1505       H  0.16707475  0.25978688  0.37974646     0.02800
H1506       H  0.16658092  0.24441688  0.39359443     0.06300
H1507       H  0.17446424  0.27472530  0.33664591     0.05300
H1508       H  0.16614756  0.25592705  0.33414620    -0.00500
H1509       H  0.17544280  0.26096971  0.35205599     0.01000
H1510       H  0.09997438  0.27864133  0.36114934     0.04600
H1511       H  0.10573637  0.29825204  0.36323727     0.06600
H1512       H  0.10850389  0.28507021  0.37895652     0.07500
C1513       C  0.46195223  0.06041135  0.05347915    -0.22200
C1514       C  0.47096369  0.07339893  0.05030926     0.09800
C1515       C  0.48003213  0.07384061  0.03687826     0.10200
C1516       C  0.47938442  0.06144711  0.02653947    -0.17100
C1517       C  0.46980116  0.04873234  0.02934750    -0.27500
C1518       C  0.46135968  0.04796708  0.04324159     0.18500
C1519       C  0.47001110  0.08669324  0.06087176     0.12500
C1520       C  0.49006910  0.08752621  0.03332394    -0.11900
H1521       H  0.48593818  0.06193840  0.01594447     0.12800
C1522       C  0.45192110  0.03413547  0.04783819    -0.22700
H1523       H  0.45520682  0.06006150  0.06396382     0.08400
C1524       C  0.45837155  0.09785822  0.05916022     0.04800
C1525       C  0.45723743  0.10980872  0.06992024    -0.19900
C1526       C  0.46745658  0.11084079  0.08238208    -0.12200
C1527       C  0.47956143  0.09997368  0.08368946     0.13500
C1528       C  0.48052317  0.08788748  0.07300885    -0.22600
C1529       C  0.44703222  0.09702022  0.04608183    -0.05700
H1530       H  0.44804007  0.11816629  0.06882331     0.15000
C1531       C  0.49198095  0.10101054  0.09573656    -0.15900
H1532       H  0.48959420  0.07938218  0.07408798     0.09300
H1533       H  0.43962524  0.03746685  0.04874420     0.07200
H1534       H  0.45589134  0.02988972  0.05921213     0.08400
H1535       H  0.45293378  0.02438915  0.03968854     0.07400
H1536       H  0.49866468  0.08908477  0.04263342     0.02300
H1537       H  0.48290977  0.09807396  0.03242723     0.02800
H1538       H  0.49635734  0.08603784  0.02230704     0.06300
H1539       H  0.43868252  0.10669614  0.04641513     0.05300
H1540       H  0.44047087  0.08606840  0.04672751    -0.00500
H1541       H  0.45324365  0.09753514  0.03494279     0.01000
H1542       H  0.49132776  0.09083446  0.10344296     0.04600
H1543       H  0.49128864  0.11159510  0.10277960     0.06600
H1544       H  0.50341296  0.10112601  0.09003573     0.07500
C1545       C  0.43011703  0.28256951  0.07808880    -0.22200
C1546       C  0.42597380  0.27682214  0.09255235     0.09800
C1547       C  0.41669906  0.28575912  0.10240180     0.10200
C1548       C  0.41160374  0.30026246  0.09746576    -0.17100
C1549       C  0.41563814  0.30604491  0.08293586    -0.27500
C1550       C  0.42492967  0.29701276  0.07304507     0.18500
C1551       C  0.43082217  0.26108823  0.09689438     0.12500
C1552       C  0.41207818  0.27990130  0.11804028    -0.11900
H1553       H  0.40453247  0.30719673  0.10504577     0.12800
C1554       C  0.42901152  0.30178520  0.05688281    -0.22700
H1555       H  0.43710949  0.27553654  0.07051824     0.08400
C1556       C  0.42257681  0.24805669  0.09182260     0.04800
C1557       C  0.42715730  0.23337271  0.09674464    -0.19900
C1558       C  0.43971196  0.23147193  0.10671010    -0.12200
C1559       C  0.44829553  0.24453737  0.11135273     0.13500
C1560       C  0.44362364  0.25921252  0.10648060    -0.22600
C1561       C  0.40874392  0.24971101  0.08151964    -0.05700
H1562       H  0.42065066  0.22335081  0.09313854     0.15000
C1563       C  0.46268481  0.24347179  0.12096608    -0.15900
H1564       H  0.45003376  0.26927969  0.11014714     0.09300
H1565       H  0.42520147  0.29272070  0.04871883     0.07200
H1566       H  0.44167088  0.30315450  0.05589930     0.08400
H1567       H  0.42345090  0.31264669  0.05323978     0.07400
H1568       H  0.42249631  0.27781060  0.12511810     0.02300
H1569       H  0.40556664  0.26896596  0.11682467     0.02800
H1570       H  0.40468623  0.28828828  0.12423284     0.06300
H1571       H  0.40347531  0.23837636  0.07881252     0.05300
H1572       H  0.41217350  0.25522895  0.07052759    -0.00500
H1573       H  0.39991718  0.25694459  0.08726197     0.01000
H1574       H  0.47233464  0.24913149  0.11478928     0.04600
H1575       H  0.46629443  0.23148052  0.12333129     0.06600
H1576       H  0.46084424  0.24947112  0.13208503     0.07500
C1577       C  0.45253488  0.15265602  0.22937076    -0.22200
C1578       C  0.44085673  0.14216027  0.23301017     0.09800
C1579       C  0.43267715  0.13474381  0.22113550     0.10200
C1580       C  0.43641972  0.13797860  0.20578496    -0.17100
C1581       C  0.44794256  0.14868121  0.20207230    -0.27500
C1582       C  0.45626451  0.15597656  0.21402946     0.18500
C1583       C  0.43703707  0.13943446  0.24934492     0.12500
C1584       C  0.41980874  0.12367397  0.22469030    -0.11900
H1585       H  0.43002355  0.13245195  0.19661801     0.12800
C1586       C  0.46940039  0.16693382  0.21112358    -0.22700
H1587       H  0.45881125  0.15825894  0.23858016     0.08400
C1588       C  0.44401496  0.12751288  0.25785088     0.04800
C1589       C  0.43945367  0.12501858  0.27313187    -0.19900
C1590       C  0.42821054  0.13430874  0.28011972    -0.12200
C1591       C  0.42193985  0.14686958  0.27178417     0.13500
C1592       C  0.42620201  0.14902593  0.25639208    -0.22600
C1593       C  0.45617707  0.11740896  0.25075516    -0.05700
H1594       H  0.44443643  0.11554066  0.27953606     0.15000
C1595       C  0.41132594  0.15866828  0.27880042    -0.15900
H1596       H  0.42119759  0.15842466  0.24987162     0.09300
H1597       H  0.47988038  0.16262842  0.21702606     0.07200
H1598       H  0.46647552  0.17846952  0.21579115     0.08400
H1599       H  0.47228583  0.16817873  0.19879293     0.07400
H1600       H  0.41069224  0.12967420  0.23132485     0.02300
H1601       H  0.42424714  0.11387579  0.23157843     0.02800
H1602       H  0.41453357  0.11896312  0.21405464     0.06300
H1603       H  0.46047772  0.10864714  0.25900987     0.05300
H1604       H  0.46607215  0.12458982  0.24703960    -0.00500
H1605       H  0.45140613  0.11129109  0.24062176     0.01000
H1606       H  0.41603724  0.17038372  0.27674607     0.09400
H1607       H  0.41008794  0.15746449  0.29139835     0.06600
H1608       H  0.39980788  0.15786101  0.27334842     0.07500
C1609       C  0.09928403  0.44394911  0.03326157    -0.22200
C1610       C  0.09619174  0.43741598  0.04765387     0.09800
C1611       C  0.08195335  0.43010649  0.05033390     0.10200
C1612       C  0.07103018  0.42957092  0.03847779    -0.17100
C1613       C  0.07406994  0.43621705  0.02408399    -0.27500
C1614       C  0.08849449  0.44325764  0.02133357     0.18500
C1615       C  0.10823486  0.43810704  0.05960807     0.12500
C1616       C  0.07835463  0.42282528  0.06563911    -0.11900
H1617       H  0.05995014  0.42421515  0.04053414     0.12800
C1618       C  0.09317483  0.44962052  0.00588355    -0.22700
H1619       H  0.11033089  0.44939890  0.03125065     0.08400
C1620       C  0.12124093  0.42843857  0.05898677     0.04800
C1621       C  0.13255760  0.42973738  0.07037051    -0.19900
C1622       C  0.13116280  0.44046898  0.08236404    -0.12200
C1623       C  0.11821278  0.45038306  0.08278530     0.13500
C1624       C  0.10682637  0.44891995  0.07146449    -0.22600
C1625       C  0.12301649  0.41654847  0.04649399    -0.05700
H1626       H  0.14240389  0.42208451  0.07008296     0.15000
C1627       C  0.11624407  0.46304395  0.09448640    -0.15900
H1628       H  0.09690315  0.45648740  0.07169569     0.09300
H1629       H  0.10398987  0.44396896  0.00209329     0.07200
H1630       H  0.09521604  0.46220654  0.00686184     0.08400
H1631       H  0.08454205  0.44758800  0.99674995     0.07400
H1632       H  0.07861498  0.43170078  0.07481603     0.02300
H1633       H  0.08699972  0.41378398  0.06825752     0.02800
H1634       H  0.06678278  0.41739984  0.06570382     0.06300
H1635       H  0.13369255  0.40967688  0.04795704     0.05300
H1636       H  0.12355909  0.42227196  0.03509869    -0.00500
H1637       H  0.11307154  0.40852423  0.04672680     0.01000
H1638       H  0.11441840  0.47417459  0.08845883     0.04600
H1639       H  0.12638929  0.46460352  0.10199645     0.06600
H1640       H  0.10603507  0.46058222  0.10175481     0.07500
C1641       C  0.16013629  0.42167527  0.23055314    -0.22200
C1642       C  0.14955122  0.40951357  0.23066841     0.09800
C1643       C  0.14345685  0.40392133  0.21674548     0.10200
C1644       C  0.14838604  0.41043881  0.20287786    -0.17100
C1645       C  0.15931104  0.42234312  0.20266631    -0.27500
C1646       C  0.16505618  0.42826224  0.21668520     0.18500
C1647       C  0.14509300  0.40266581  0.24551135     0.12500
C1648       C  0.13194632  0.39094450  0.21654261    -0.11900
H1649       H  0.14400803  0.40592749  0.19211168     0.12800
C1650       C  0.17600121  0.44170298  0.21749523    -0.22700
H1651       H  0.16458325  0.42603538  0.24135785     0.08400
C1652       C  0.15354953  0.39044399  0.25199376     0.04800
C1653       C  0.14881965  0.38422263  0.26608148    -0.19900
C1654       C  0.13584445  0.38998327  0.27378812    -0.12200
C1655       C  0.12709524  0.40193945  0.26697152     0.13500
C1656       C  0.13200601  0.40828374  0.25299855    -0.22600
C1657       C  0.16759663  0.38408000  0.24408082    -0.05700
H1658       H  0.15549417  0.37505049  0.27127945     0.15000
C1659       C  0.11223270  0.40787509  0.27365398    -0.15900
H1660       H  0.12541791  0.41749256  0.24773838     0.09300
H1661       H  0.18694535  0.43796768  0.22291364     0.07200
H1662       H  0.17082372  0.45097822  0.22460231     0.08400
H1663       H  0.17863795  0.44671853  0.20608784     0.07400
H1664       H  0.12149717  0.39435783  0.22303773     0.02300
H1665       H  0.13701965  0.38052592  0.22192849     0.02800
H1666       H  0.12841863  0.38792624  0.20464557     0.06300
H1667       H  0.17286950  0.37451852  0.25073147     0.05300
H1668       H  0.17633421  0.39330934  0.24273221    -0.00500
H1669       H  0.16442627  0.37959679  0.23255923     0.01000
H1670       H  0.11360876  0.42015585  0.27693511     0.04600
H1671       H  0.10829159  0.40129130  0.28380882     0.06600
H1672       H  0.10298859  0.40697508  0.26488612     0.07500
C1673       C  0.27292046  0.39869601  0.11675899    -0.22200
C1674       C  0.27987360  0.40741505  0.10514980     0.09800
C1675       C  0.27190640  0.41991338  0.09855783     0.10200
C1676       C  0.25717052  0.42360959  0.10398490    -0.17100
C1677       C  0.25016300  0.41501592  0.11575999    -0.27500
C1678       C  0.25811203  0.40225355  0.12212497     0.18500
C1679       C  0.29531794  0.40285766  0.09970996     0.12500
C1680       C  0.27883360  0.42913524  0.08561103    -0.11900
H1681       H  0.25105318  0.43325411  0.09895991     0.12800
C1682       C  0.25089663  0.39182759  0.13395886    -0.22700
H1683       H  0.27909589  0.38895194  0.12152520     0.08400
C1684       C  0.30876400  0.40952690  0.10583232     0.04800
C1685       C  0.32313780  0.40481402  0.10022870    -0.19900
C1686       C  0.32436437  0.39342189  0.08881953    -0.12200
C1687       C  0.31080248  0.38681395  0.08263707     0.13500
C1688       C  0.29645767  0.39153479  0.08831004    -0.22600
C1689       C  0.30793620  0.42136875  0.11846730    -0.05700
H1690       H  0.33350720  0.40982619  0.10501318     0.15000
C1691       C  0.31085296  0.37528921  0.06967483    -0.15900
H1692       H  0.28603499  0.38652032  0.08362784     0.09300
H1693       H  0.24954018  0.39800404  0.14500583     0.07200
H1694       H  0.25815609  0.38155729  0.13628021     0.08400
H1695       H  0.23954743  0.38768752  0.12981168     0.07400
H1696       H  0.28120422  0.42146085  0.07568170     0.02300
H1697       H  0.28975321  0.43453703  0.08940752     0.02800
H1698       H  0.27099014  0.43843606  0.08168299     0.06300
H1699       H  0.31955633  0.42530179  0.12204035     0.05300
H1700       H  0.30211753  0.41634211  0.12866488    -0.00500
H1701       H  0.30136261  0.43157850  0.11451855     0.01000
H1702       H  0.30609617  0.36416345  0.07380806     0.04600
H1703       H  0.32240676  0.37322987  0.06477528     0.06600
H1704       H  0.30352074  0.37961542  0.06015105     0.07500
C1705       C  0.93407660  0.42734100  0.40948190    -0.22200
C1706       C  0.94436588  0.42642707  0.42181185     0.09800
C1707       C  0.95434554  0.41366617  0.42301942     0.10200
C1708       C  0.95437930  0.40247167  0.41134879    -0.17100
C1709       C  0.94449017  0.40367156  0.39863657    -0.27500
C1710       C  0.93374654  0.41595763  0.39805150     0.18500
C1711       C  0.94424400  0.43882945  0.43350198     0.12500
C1712       C  0.96496677  0.41193284  0.43659000    -0.11900
H1713       H  0.96244716  0.39297231  0.41194297     0.12800
C1714       C  0.92134615  0.41716142  0.38598810    -0.22700
H1715       H  0.92608742  0.43691757  0.40889393     0.08400
C1716       C  0.95414522  0.45163903  0.43241835     0.04800
C1717       C  0.95382982  0.46291489  0.44398685    -0.19900
C1718       C  0.94369611  0.46180293  0.45654900    -0.12200
C1719       C  0.93367513  0.44888339  0.45750934     0.13500
C1720       C  0.93402446  0.43769466  0.44586643    -0.22600
C1721       C  0.96489893  0.45347113  0.41895833    -0.05700
H1722       H  0.96141027  0.47279142  0.44309659     0.15000
C1723       C  0.92289901  0.44592006  0.47077699    -0.15900
H1724       H  0.92645452  0.42778709  0.44659634     0.09300
H1725       H  0.92336119  0.42751867  0.37877395     0.07200
H1726       H  0.90997373  0.41827964  0.39170036     0.08400
H1727       H  0.92062272  0.40689616  0.37848482     0.07400
H1728       H  0.95811419  0.41137071  0.44734854     0.02300
H1729       H  0.97291941  0.42191067  0.43721474     0.02800
H1730       H  0.97198014  0.40127158  0.43578298     0.06300
H1731       H  0.97179031  0.46421042  0.41981781     0.05300
H1732       H  0.95816737  0.45393012  0.40812009    -0.00500
H1733       H  0.97297054  0.44358542  0.41844942     0.01000
H1734       H  0.91083045  0.44614981  0.46660547     0.04600
H1735       H  0.92403264  0.45421162  0.48029536     0.06600
H1736       H  0.92530612  0.43435981  0.47569473     0.07500
C1737       C  0.60762913  0.09581085  0.40345005    -0.22200
C1738       C  0.61020146  0.10577661  0.41584067     0.09800
C1739       C  0.62337620  0.11524317  0.41597199     0.10200
C1740       C  0.63356426  0.11477636  0.40346304    -0.17100
C1741       C  0.63088718  0.10502528  0.39085417    -0.27500
C1742       C  0.61786150  0.09522399  0.39096701     0.18500
C1743       C  0.59914055  0.10575168  0.42877413     0.12500
C1744       C  0.62670040  0.12573985  0.42935269    -0.11900
H1745       H  0.64363033  0.12214614  0.40347408     0.12800
C1746       C  0.61505226  0.08359984  0.37841269    -0.22700
H1747       H  0.59761146  0.08837355  0.40363846     0.08400
C1748       C  0.58622218  0.11556364  0.42890295     0.04800
C1749       C  0.57601501  0.11501457  0.44140013    -0.19900
C1750       C  0.57831079  0.10469066  0.45364363    -0.12200
C1751       C  0.59134168  0.09488974  0.45347462     0.13500
C1752       C  0.60159422  0.09557522  0.44101872    -0.22600
C1753       C  0.58320158  0.12652589  0.41581681    -0.05700
H1754       H  0.56606497  0.12253848  0.44151053     0.15000
C1755       C  0.59483229  0.08407154  0.46657759    -0.15900
H1756       H  0.61161334  0.08814443  0.44080033     0.09300
H1757       H  0.61252994  0.08950925  0.36741630     0.07200
H1758       H  0.60506260  0.07607647  0.38107250     0.08400
H1759       H  0.62531891  0.07611609  0.37705053     0.07400
H1760       H  0.62791331  0.11882691  0.44002501     0.02300
H1761       H  0.61714578  0.13408641  0.43082177     0.02800
H1762       H  0.63750701  0.13234585  0.42763163     0.06300
H1763       H  0.57257536  0.13336809  0.41771368     0.05300
H1764       H  0.58182518  0.11995914  0.40495251    -0.00500
H1765       H  0.59298012  0.13465417  0.41459317     0.01000
H1766       H  0.58576122  0.07512398  0.46742830     0.04600
H1767       H  0.59549030  0.09062396  0.47752510     0.06600
H1768       H  0.60598344  0.07805252  0.46492116     0.07500
C1769       C  0.61769437  0.44828280  0.08184830    -0.22200
C1770       C  0.60744862  0.44808396  0.06943682     0.09800
C1771       C  0.60936617  0.43714317  0.05761457     0.10200
C1772       C  0.62171459  0.42673654  0.05837405    -0.17100
C1773       C  0.63214720  0.42704578  0.07070479    -0.27500
C1774       C  0.62983684  0.43770926  0.08282571     0.18500
C1775       C  0.59464402  0.45931836  0.06925807     0.12500
C1776       C  0.59834064  0.43643998  0.04427948    -0.11900
H1777       H  0.62339619  0.41849383  0.04916729     0.12800
C1778       C  0.63938345  0.43787721  0.09729924    -0.22700
H1779       H  0.61598369  0.45655970  0.09102961     0.08400
C1780       C  0.58143137  0.45717657  0.07840927     0.04800
C1781       C  0.56979291  0.46835831  0.07821299    -0.19900
C1782       C  0.57109212  0.48168770  0.06914447    -0.12200
C1783       C  0.58459112  0.48399265  0.06024936     0.13500
C1784       C  0.59604769  0.47260623  0.06023802    -0.22600
C1785       C  0.57955968  0.44301503  0.08824701    -0.05700
H1786       H  0.55953779  0.46661704  0.08509195     0.15000
C1787       C  0.58783660  0.49853341  0.05129919    -0.15900
H1788       H  0.60639207  0.47430484  0.05347385     0.09300
H1789       H  0.63168574  0.43689524  0.10744567     0.07200
H1790       H  0.64581689  0.44889807  0.09806020     0.08400
H1791       H  0.64762365  0.42820080  0.09804302     0.07400
H1792       H  0.59854668  0.44751380  0.03789999     0.02300
H1793       H  0.58650813  0.43428853  0.04858373     0.02800
H1794       H  0.60137547  0.42707711  0.03612692     0.06300
H1795       H  0.56840457  0.44301614  0.09447306     0.05300
H1796       H  0.58891176  0.44248351  0.09691504    -0.00500
H1797       H  0.58002554  0.43255876  0.08091454     0.01000
H1798       H  0.59913335  0.50330053  0.05489960     0.04600
H1799       H  0.57929909  0.50776998  0.05319884     0.06600
H1800       H  0.58832081  0.49584259  0.03883073     0.07500
C1801       C  0.61710503  0.07559936  0.02761524    -0.22200
C1802       C  0.62727349  0.07426855  0.04000987     0.09800
C1803       C  0.63636964  0.06092581  0.04161691     0.10200
C1804       C  0.63513738  0.04915527  0.03063515    -0.17100
C1805       C  0.62495094  0.05044998  0.01817273    -0.27500
C1806       C  0.61597658  0.06397920  0.01650348     0.18500
C1807       C  0.62862756  0.08733136  0.05079627     0.12500
C1808       C  0.64732522  0.05915131  0.05491197    -0.11900
H1809       H  0.64200394  0.03880558  0.03188313     0.12800
C1810       C  0.60567889  0.06700355  0.00286397    -0.22700
H1811       H  0.61031674  0.08600790  0.02637362     0.08400
C1812       C  0.63861903  0.09974324  0.04773610     0.04800
C1813       C  0.63943985  0.11200218  0.05819267    -0.19900
C1814       C  0.63044595  0.11214301  0.07160575    -0.12200
C1815       C  0.61997905  0.09990374  0.07433078     0.13500
C1816       C  0.61940844  0.08753147  0.06397980    -0.22600
C1817       C  0.64850236  0.09994288  0.03350680    -0.05700
H1818       H  0.64741485  0.12135966  0.05605551     0.15000
C1819       C  0.60876347  0.09973067  0.08755415    -0.15900
H1820       H  0.61149841  0.07809243  0.06604586     0.09300
H1821       H  0.60892539  0.07814927  0.99749382     0.07200
H1822       H  0.59353471  0.06771015  0.00675032     0.08400
H1823       H  0.60656161  0.05817270  0.99374244     0.07400
H1824       H  0.64085061  0.05961790  0.06590476     0.02300
H1825       H  0.65594064  0.06858758  0.05471631     0.02800
H1826       H  0.65358184  0.04800714  0.05444189     0.06300
H1827       H  0.65574242  0.11046751  0.03290679     0.05300
H1828       H  0.64110264  0.09962669  0.02311009    -0.00500
H1829       H  0.65623141  0.08976615  0.03346249     0.01000
H1830       H  0.59691893  0.09811163  0.08304899     0.04600
H1831       H  0.60866321  0.11057915  0.09421805     0.06600
H1832       H  0.61153357  0.09002483  0.09539378     0.07500
C1833       C  0.64695895  0.14189189  0.24944003    -0.22200
C1834       C  0.65285098  0.13288402  0.23745892     0.09800
C1835       C  0.66138551  0.11951230  0.24088078     0.10200
C1836       C  0.66417299  0.11564452  0.25628919    -0.17100
C1837       C  0.65861907  0.12482685  0.26836499    -0.27500
C1838       C  0.64982774  0.13814380  0.26488442     0.18500
C1839       C  0.65104202  0.13832220  0.22143249     0.12500
C1840       C  0.66772877  0.10947083  0.22825873    -0.11900
H1841       H  0.67088547  0.10546126  0.25894450     0.12800
C1842       C  0.64402728  0.14919658  0.27692636    -0.22700
H1843       H  0.64054229  0.15224705  0.24669725     0.08400
C1844       C  0.63830951  0.13407534  0.21234670     0.04800
C1845       C  0.63756839  0.13905676  0.19700147    -0.19900
C1846       C  0.64911880  0.14844611  0.19068442    -0.12200
C1847       C  0.66178089  0.15285459  0.19991078     0.13500
C1848       C  0.66257409  0.14769581  0.21518270    -0.22600
C1849       C  0.62557863  0.12428567  0.21885537    -0.05700
H1850       H  0.62790089  0.13565898  0.18989860     0.15000
C1851       C  0.67482203  0.16238367  0.19358883    -0.15900
H1852       H  0.67233501  0.15083078  0.22228174     0.09300
H1853       H  0.63126327  0.14951325  0.27661752     0.07200
H1854       H  0.64848627  0.16092587  0.27444182     0.08400
H1855       H  0.64771002  0.14624864  0.28872316     0.07400
H1856       H  0.67575358  0.11623605  0.22097785     0.02300
H1857       H  0.65817944  0.10507717  0.22101512     0.02800
H1858       H  0.67409590  0.09941530  0.23293228     0.06300
H1859       H  0.61645207  0.12202935  0.21020851     0.05300
H1860       H  0.62024722  0.13025835  0.22880346    -0.00500
H1861       H  0.63025776  0.11304196  0.22272638     0.01000
H1862       H  0.67067612  0.17406117  0.19055404     0.04600
H1863       H  0.67971892  0.15671331  0.18324802     0.06600
H1864       H  0.68422606  0.16378900  0.20211879     0.07500
C1865       C  0.67621742  0.25074885  0.08167153    -0.22200
C1866       C  0.66840891  0.26330181  0.08807693     0.09800
C1867       C  0.65689148  0.26077319  0.09920744     0.10200
C1868       C  0.65346058  0.24564774  0.10374471    -0.17100
C1869       C  0.66117334  0.23300164  0.09727928    -0.27500
C1870       C  0.67289828  0.23560715  0.08624921     0.18500
C1871       C  0.67255699  0.27904693  0.08307084     0.12500
C1872       C  0.64814489  0.27403597  0.10615830    -0.11900
H1873       H  0.64452843  0.24365403  0.11221383     0.12800
C1874       C  0.68263675  0.22290607  0.07954757    -0.22700
H1875       H  0.68517914  0.25281558  0.07324407     0.08400
C1876       C  0.68388115  0.28768185  0.09082831     0.04800
C1877       C  0.68687483  0.30284746  0.08611713    -0.19900
C1878       C  0.67890337  0.30950824  0.07372058    -0.12200
C1879       C  0.66819409  0.30045389  0.06540219     0.13500
C1880       C  0.66497125  0.28542242  0.07038018    -0.22600
C1881       C  0.69268308  0.28091713  0.10413789    -0.05700
H1882       H  0.69518931  0.30966978  0.09242633     0.15000
C1883       C  0.66038457  0.30594736  0.05093328    -0.15900
H1884       H  0.65655790  0.27855540  0.06423505     0.09300
H1885       H  0.69497348  0.22548549  0.08164249     0.07200
H1886       H  0.68066567  0.22221442  0.06695538     0.08400
H1887       H  0.68033025  0.21147991  0.08467569     0.07400
H1888       H  0.64204934  0.28047949  0.09696741     0.02300
H1889       H  0.65620524  0.28193518  0.11213156     0.02800
H1890       H  0.63947121  0.27003746  0.11464458     0.06300
H1891       H  0.70115226  0.28921978  0.10890530     0.05300
H1892       H  0.69903272  0.27052219  0.10026876    -0.00500
H1893       H  0.68463234  0.27763656  0.11348265     0.01000
H1894       H  0.66255745  0.29757123  0.04153114     0.04600
H1895       H  0.66467642  0.31723537  0.04686566     0.06600
H1896       H  0.64779292  0.30675732  0.05289706     0.07500
C1897       C  0.96746759  0.06062636  0.34601271    -0.22200
C1898       C  0.97875944  0.06244533  0.35735119     0.09800
C1899       C  0.97895874  0.07590775  0.36640567     0.10200
C1900       C  0.96749817  0.08706345  0.36426721    -0.17100
C1901       C  0.95591403  0.08515927  0.35316864    -0.27500
C1902       C  0.95617218  0.07193938  0.34359729     0.18500
C1903       C  0.99050660  0.05028429  0.35943178     0.12500
C1904       C  0.99126941  0.07847393  0.37833036    -0.11900
H1905       H  0.96742894  0.09721861  0.37151324     0.12800
C1906       C  0.94527152  0.06963911  0.33031710    -0.22700
H1907       H  0.96762361  0.05041346  0.33883864     0.08400
C1908       C  0.98858800  0.03844013  0.37035789     0.04800
C1909       C  0.00054489  0.02783478  0.37272967    -0.19900
C1910       C  0.01427199  0.02867855  0.36424705    -0.12200
C1911       C  0.01610334  0.04054662  0.35318409     0.13500
C1912       C  0.00410367  0.05110036  0.35084762    -0.22600
C1913       C  0.97387850  0.03695883  0.37939645    -0.05700
H1914       H  0.99908904  0.01869036  0.38109715     0.15000
C1915       C  0.03070760  0.04297986  0.34413131    -0.15900
H1916       H  0.00552978  0.06032626  0.34255774     0.09300
H1917       H  0.93796836  0.05937508  0.33248793     0.07200
H1918       H  0.95198703  0.06771760  0.31962427     0.08400
H1919       H  0.93775875  0.07969399  0.32816849     0.07400
H1920       H  0.00274630  0.07852892  0.37273140     0.02300
H1921       H  0.99091212  0.06914053  0.38704166     0.02800
H1922       H  0.98975639  0.08963652  0.38437941     0.06300
H1923       H  0.97421875  0.02698795  0.38739337     0.05300
H1924       H  0.96407100  0.03529461  0.37139028    -0.00500
H1925       H  0.97189701  0.04753369  0.38627889     0.01000
H1926       H  0.02834334  0.04127803  0.33170265     0.04600
H1927       H  0.04020550  0.03524062  0.34757958     0.06600
H1928       H  0.03486731  0.05494291  0.34591746     0.07500
C1929       C  0.92229728  0.23197225  0.33906747    -0.22200
C1930       C  0.93159496  0.23818975  0.35065417     0.09800
C1931       C  0.93664177  0.22876836  0.36285099     0.10200
C1932       C  0.93231230  0.21320375  0.36314114    -0.17100
C1933       C  0.92285760  0.20696767  0.35164174    -0.27500
C1934       C  0.91792944  0.21642496  0.33932094     0.18500
C1935       C  0.93575938  0.25467346  0.34985236     0.12500
C1936       C  0.94643155  0.23520805  0.37560859    -0.11900
H1937       H  0.93608039  0.20591867  0.37254058     0.12800
C1938       C  0.90856128  0.21048808  0.32599256    -0.22700
H1939       H  0.91855141  0.23928577  0.32967507     0.08400
C1940       C  0.94900513  0.25970721  0.34196633     0.04800
C1941       C  0.95238283  0.27550925  0.34147653    -0.19900
C1942       C  0.94272692  0.28635080  0.34858078    -0.12200
C1943       C  0.92911091  0.28127152  0.35597479     0.13500
C1944       C  0.92599031  0.26544830  0.35675960    -0.22600
C1945       C  0.95948304  0.24840210  0.33403638    -0.05700
H1946       H  0.96264122  0.27943495  0.33556677     0.15000
C1947       C  0.91716096  0.29208004  0.36241399    -0.15900
H1948       H  0.91563474  0.26148491  0.36248352     0.09300
H1949       H  0.91478874  0.21280763  0.31508521     0.07200
H1950       H  0.89730754  0.21652357  0.32566641     0.08400
H1951       H  0.90641756  0.19793479  0.32650494     0.07400
H1952       H  0.94015305  0.24463894  0.38151663     0.02300
H1953       H  0.95733717  0.23981621  0.37082721     0.02800
H1954       H  0.94933713  0.22628445  0.38428821     0.06300
H1955       H  0.96932940  0.25426478  0.32837837     0.05300
H1956       H  0.95296598  0.24202349  0.32509505    -0.00500
H1957       H  0.96414254  0.24007512  0.34252538     0.01000
H1958       H  0.90582471  0.28947412  0.35712943     0.04600
H1959       H  0.91956126  0.30435539  0.36003178     0.06600
H1960       H  0.91627759  0.29043140  0.37504003     0.07500
C1961       C  0.81000444  0.10632789  0.34503513    -0.22200
C1962       C  0.80068273  0.11371293  0.35591450     0.09800
C1963       C  0.80748116  0.12308809  0.36726041     0.10200
C1964       C  0.82349101  0.12520192  0.36721938    -0.17100
C1965       C  0.83285950  0.11810401  0.35612602    -0.27500
C1966       C  0.82601826  0.10846353  0.34491376     0.18500
C1967       C  0.78375533  0.11246981  0.35433730     0.12500
C1968       C  0.79778806  0.13118305  0.37911289    -0.11900
H1969       H  0.82872032  0.13262706  0.37576673     0.12800
C1970       C  0.83531008  0.10114970  0.33224214    -0.22700
H1971       H  0.80462090  0.09925709  0.33628364     0.08400
C1972       C  0.77580074  0.12130113  0.34331140     0.04800
C1973       C  0.75988952  0.11937853  0.34162889    -0.19900
C1974       C  0.75165495  0.10875216  0.35063135    -0.12200
C1975       C  0.75970633  0.09985858  0.36173026     0.13500
C1976       C  0.77563378  0.10203668  0.36356751    -0.22600
C1977       C  0.78410895  0.13284912  0.33337973    -0.05700
H1978       H  0.75381670  0.12630684  0.33322535     0.15000
C1979       C  0.75226312  0.08741148  0.37125796    -0.15900
H1980       H  0.78186306  0.09519295  0.37193691     0.09300
H1981       H  0.82786957  0.09503413  0.32384453     0.07200
H1982       H  0.84337378  0.09255401  0.33709941     0.08400
H1983       H  0.84182843  0.11013298  0.32590228     0.07400
H1984       H  0.79140229  0.12256238  0.38605359     0.02300
H1985       H  0.78945234  0.13894716  0.37332581     0.02800
H1986       H  0.80491105  0.13821684  0.38705466     0.06300
H1987       H  0.77611163  0.13900946  0.32554661     0.05300
H1988       H  0.79284983  0.12691589  0.32621331    -0.00500
H1989       H  0.78989485  0.14153072  0.34075551     0.01000
H1990       H  0.75870334  0.07646698  0.36975360     0.04600
H1991       H  0.74023531  0.08498920  0.36795346     0.06600
H1992       H  0.75260557  0.09070784  0.38358631     0.07500
C1993       C  0.96462992  0.45574453  0.06356220    -0.22200
C1994       C  0.97630353  0.44472196  0.06476580     0.09800
C1995       C  0.97658367  0.43456109  0.07739775     0.10200
C1996       C  0.96481740  0.43539872  0.08840358    -0.17100
C1997       C  0.95279804  0.44613664  0.08698445    -0.27500
C1998       C  0.95293898  0.45672568  0.07459689     0.18500
C1999       C  0.98753138  0.44347111  0.05210670     0.12500
C2000       C  0.98910421  0.42267980  0.07905233    -0.11900
H2001       H  0.96477627  0.42736314  0.09794597     0.12800
C2002       C  0.94134420  0.46950993  0.07282049    -0.22700
H2003       H  0.96462283  0.46361684  0.05387563     0.08400
C2004       C  0.98408355  0.43478240  0.03887011     0.04800
C2005       C  0.99477858  0.43417047  0.02686780    -0.19900
C2006       C  0.00884144  0.44202078  0.02782243    -0.12200
C2007       C  0.01249234  0.45042240  0.04130489     0.13500
C2008       C  0.00163185  0.45120698  0.05322124    -0.22600
C2009       C  0.96913866  0.42610196  0.03747050    -0.05700
H2010       H  0.99213346  0.42756094  0.01662558     0.15000
C2011       C  0.02786851  0.45805602  0.04389036    -0.15900
H2012       H  0.00425942  0.45768911  0.06354836     0.09300
H2013       H  0.93460101  0.46769867  0.06213271     0.07200
H2014       H  0.94746432  0.48070928  0.07198177     0.08400
H2015       H  0.93330346  0.47044764  0.08262841     0.07400
H2016       H  0.00045506  0.42848983  0.07982421     0.02300
H2017       H  0.98906333  0.41487855  0.06894156     0.02800
H2018       H  0.98753517  0.41556391  0.08955141     0.06300
H2019       H  0.96834019  0.41977968  0.02640010     0.05300
H2020       H  0.95932787  0.43425772  0.03810306    -0.00500
H2021       H  0.96816657  0.41759606  0.04695483     0.01000
H2022       H  0.02622182  0.47066297  0.04525457     0.04600
H2023       H  0.03617935  0.45606993  0.03446271     0.06600
H2024       H  0.03314936  0.45341022  0.05455476     0.07500
C2025       C  0.93555803  0.40017098  0.21828071    -0.22200
C2026       C  0.92896318  0.40571858  0.23185408     0.09800
C2027       C  0.91814091  0.41779122  0.23127597     0.10200
C2028       C  0.91395080  0.42393714  0.21696660    -0.17100
C2029       C  0.92047450  0.41835079  0.20330932    -0.27500
C2030       C  0.93135738  0.40620413  0.20395099     0.18500
C2031       C  0.93359051  0.39867849  0.24657563     0.12500
C2032       C  0.91103590  0.42411894  0.24574980    -0.11900
H2033       H  0.90560972  0.43320472  0.21642004     0.12800
C2034       C  0.93831102  0.39878089  0.18989823    -0.22700
H2035       H  0.94382759  0.39083438  0.21886916     0.08400
C2036       C  0.92630213  0.38532918  0.25225255     0.04800
C2037       C  0.93096815  0.37924736  0.26644486    -0.19900
C2038       C  0.94268593  0.38630070  0.27503949    -0.12200
C2039       C  0.95031107  0.39938790  0.26904115     0.13500
C2040       C  0.94560739  0.40544233  0.25486283    -0.22600
C2041       C  0.91355393  0.37763360  0.24338457    -0.05700
H2042       H  0.92524621  0.36913200  0.27099940     0.15000
C2043       C  0.96378494  0.40665636  0.27717955    -0.15900
H2044       H  0.95129385  0.41552738  0.25019282     0.09300
H2045       H  0.93607327  0.38618919  0.19020206     0.07200
H2046       H  0.95093792  0.40070666  0.18986928     0.08400
H2047       H  0.93351849  0.40309196  0.17894657     0.07400
H2048       H  0.92017291  0.42877444  0.25335984     0.02300
H2049       H  0.90477080  0.41482911  0.25189601     0.02800
H2050       H  0.90277433  0.43354981  0.24324738     0.06300
H2051       H  0.90904984  0.36734574  0.24950269     0.05300
H2052       H  0.91789244  0.37387366  0.23198271    -0.00500
H2053       H  0.90390232  0.38583571  0.24170828     0.01000
H2054       H  0.96906128  0.41598434  0.27020359     0.04600
H2055       H  0.97275879  0.39782882  0.27938679     0.06600
H2056       H  0.96005353  0.41183667  0.28819620     0.07500
C2057       C  0.81279329  0.41413105  0.09714021    -0.22200
C2058       C  0.80048572  0.42003556  0.10566225     0.09800
C2059       C  0.80342062  0.42887406  0.11893838     0.10200
C2060       C  0.81871098  0.43170658  0.12334023    -0.17100
C2061       C  0.83111906  0.42579578  0.11482141    -0.27500
C2062       C  0.82807138  0.41659946  0.10168641     0.18500
C2063       C  0.78464750  0.41587258  0.10098095     0.12500
C2064       C  0.79041318  0.43534717  0.12837260    -0.11900
H2065       H  0.82099989  0.43866323  0.13343161     0.12800
C2066       C  0.84040685  0.40838841  0.09266424    -0.22700
H2067       H  0.81042383  0.40704921  0.08714439     0.08400
C2068       C  0.77685104  0.42381975  0.08918215     0.04800
C2069       C  0.76210612  0.41890018  0.08474709    -0.19900
C2070       C  0.75509375  0.40612480  0.09175907    -0.12200
C2071       C  0.76277687  0.39849357  0.10395515     0.13500
C2072       C  0.77753994  0.40336255  0.10823628    -0.22600
C2073       C  0.78416164  0.43737918  0.08123349    -0.05700
H2074       H  0.75618807  0.42479561  0.07548736     0.15000
C2075       C  0.75567352  0.38557486  0.11312550    -0.15900
H2076       H  0.78354731  0.39740618  0.11740913     0.09300
H2077       H  0.84095925  0.41319057  0.08084558     0.07200
H2078       H  0.83755295  0.39593865  0.09192630     0.08400
H2079       H  0.85193058  0.40909169  0.09797739     0.07400
H2080       H  0.78319379  0.42582259  0.13289864     0.02300
H2081       H  0.78321016  0.44300275  0.12110997     0.02800
H2082       H  0.79469832  0.44215512  0.13829755     0.06300
H2083       H  0.77647303  0.44235569  0.07232572     0.05300
H2084       H  0.79499508  0.43372386  0.07554902    -0.00500
H2085       H  0.78677709  0.44650588  0.08978195     0.01000
H2086       H  0.76235175  0.37482943  0.11130067     0.04600
H2087       H  0.74348523  0.38339035  0.11021098     0.06600
H2088       H  0.75598308  0.38854720  0.12554042     0.07500
C2089       C  0.60756877  0.92675612  0.42014511    -0.22200
C2090       C  0.61086180  0.93891951  0.43016127     0.09800
C2091       C  0.62475780  0.94712954  0.42868491     0.10200
C2092       C  0.63500607  0.94313547  0.41689765    -0.17100
C2093       C  0.63163120  0.93109660  0.40665470    -0.27500
C2094       C  0.61789324  0.92253022  0.40854393     0.18500
C2095       C  0.59964382  0.94253853  0.44233105     0.12500
C2096       C  0.62866665  0.96012436  0.43946739    -0.11900
H2097       H  0.64558838  0.94959609  0.41550780     0.12800
C2098       C  0.61400091  0.90847064  0.39913684    -0.22700
H2099       H  0.59697240  0.92031837  0.42159942     0.08400
C2100       C  0.58709056  0.95240899  0.43953604     0.04800
C2101       C  0.57617593  0.95470650  0.45115661    -0.19900
C2102       C  0.57750790  0.94722076  0.46539519    -0.12200
C2103       C  0.59044382  0.93776919  0.46836933     0.13500
C2104       C  0.60128173  0.93542908  0.45668380    -0.22600
C2105       C  0.58511412  0.96028272  0.42422715    -0.05700
H2106       H  0.56628711  0.96199007  0.44895174     0.15000
C2107       C  0.59347218  0.93035486  0.48376053    -0.15900
H2108       H  0.61109093  0.92799661  0.45876343     0.09300
H2109       H  0.60348843  0.91072150  0.39224764     0.07200
H2110       H  0.61175981  0.89860474  0.40695680     0.08400
H2111       H  0.62336045  0.90485299  0.39132154     0.07400
H2112       H  0.62917000  0.95575229  0.45145279     0.02300
H2113       H  0.61975025  0.96924246  0.43869488     0.02800
H2114       H  0.63997461  0.96537696  0.43666085     0.06300
H2115       H  0.57465615  0.96762713  0.42398477     0.05300
H2116       H  0.58404869  0.95152926  0.41498694    -0.00500
H2117       H  0.59523049  0.96771031  0.42183999     0.01000
H2118       H  0.59329625  0.91762874  0.48251100     0.04600
H2119       H  0.58506222  0.93370273  0.49271463     0.06600
H2120       H  0.60499792  0.93391906  0.48796673     0.07500
C2121       C  0.92690508  0.57995890  0.42601440    -0.22200
C2122       C  0.93611959  0.56711617  0.42280053     0.09800
C2123       C  0.94397806  0.56623244  0.40865153     0.10200
C2124       C  0.94257634  0.57832634  0.39805198    -0.17100
C2125       C  0.93354412  0.59134440  0.40127188    -0.27500
C2126       C  0.92546762  0.59210780  0.41540753     0.18500
C2127       C  0.93737694  0.55464267  0.43437112     0.12500
C2128       C  0.95384966  0.55251785  0.40476101    -0.11900
H2129       H  0.94868937  0.57766954  0.38720999     0.12800
C2130       C  0.91481672  0.60527818  0.41914491    -0.22700
H2131       H  0.92078938  0.58042814  0.43686588     0.08400
C2132       C  0.94872608  0.55499686  0.44593420     0.04800
C2133       C  0.94984017  0.54265207  0.45630741    -0.19900
C2134       C  0.93985513  0.52993354  0.45540446    -0.12200
C2135       C  0.92862680  0.52951027  0.44357524     0.13500
C2136       C  0.92741161  0.54200276  0.43337493    -0.22600
C2137       C  0.95963697  0.56841186  0.44729699    -0.05700
H2138       H  0.95844736  0.54302752  0.46531991     0.15000
C2139       C  0.91824636  0.51587958  0.44076913    -0.15900
H2140       H  0.91887574  0.54170384  0.42428697     0.09300
H2141       H  0.92144279  0.61608090  0.42053136     0.07200
H2142       H  0.90851007  0.60327477  0.43007211     0.08400
H2143       H  0.90618350  0.60666661  0.40984017     0.07400
H2144       H  0.94672552  0.54190459  0.40478262     0.02300
H2145       H  0.96318655  0.55130973  0.41337992     0.02800
H2146       H  0.95922131  0.55367522  0.39323138     0.06300
H2147       H  0.96783164  0.56687564  0.45697294     0.05300
H2148       H  0.95303904  0.57916916  0.44932565    -0.00500
H2149       H  0.96639209  0.56962637  0.43653430     0.01000
H2150       H  0.90609402  0.51930928  0.44268287     0.04600
H2151       H  0.92089901  0.50582345  0.44811024     0.06600
H2152       H  0.91955607  0.51199018  0.42867540     0.07500
C2153       C  0.61213633  0.58198799  0.09456611    -0.22200
C2154       C  0.60027860  0.58358251  0.08381894     0.09800
C2155       C  0.59884838  0.59728275  0.07525402     0.10200
C2156       C  0.60963829  0.60906302  0.07738458    -0.17100
C2157       C  0.62177088  0.60739245  0.08788830    -0.27500
C2158       C  0.62281932  0.59383094  0.09689971     0.18500
C2159       C  0.58927660  0.57085121  0.08184827     0.12500
C2160       C  0.58607674  0.59932903  0.06372313    -0.11900
H2161       H  0.60885349  0.61944880  0.07050605     0.12800
C2162       C  0.63460073  0.59162505  0.10943321    -0.22700
H2163       H  0.61293263  0.57150358  0.10130468     0.08400
C2164       C  0.59215856  0.55875743  0.07144622     0.04800
C2165       C  0.58103957  0.54725618  0.06950728    -0.19900
C2166       C  0.56714997  0.54766997  0.07771325    -0.12200
C2167       C  0.56414723  0.56003485  0.08789875     0.13500
C2168       C  0.57543797  0.57132474  0.09004335    -0.22600
C2169       C  0.60688911  0.55808412  0.06235047    -0.05700
H2170       H  0.58322107  0.53784221  0.06161204     0.15000
C2171       C  0.54897921  0.56224802  0.09603811    -0.15900
H2172       H  0.57324451  0.58085959  0.09779547     0.09300
H2173       H  0.64235834  0.58194087  0.10637646     0.07200
H2174       H  0.62865324  0.58881835  0.12038337     0.08400
H2175       H  0.64162309  0.60202732  0.11162338     0.07400
H2176       H  0.57477123  0.59852023  0.06960268     0.02300
H2177       H  0.58681252  0.59022099  0.05479755     0.02800
H2178       H  0.58672259  0.61069986  0.05790351     0.06300
H2179       H  0.60723824  0.54787524  0.05466237     0.05300
H2180       H  0.61684897  0.55740909  0.07030817    -0.00500
H2181       H  0.60799726  0.56856929  0.05512524     0.01000
H2182       H  0.55076683  0.56157802  0.10865828     0.04600
H2183       H  0.54011450  0.55373464  0.09271345     0.06600
H2184       H  0.54427993  0.57379138  0.09315933     0.07500
C2185       C  0.96876889  0.62209592  0.07116553    -0.22200
C2186       C  0.96724188  0.63398342  0.06040428     0.09800
C2187       C  0.95437529  0.64381037  0.06097689     0.10200
C2188       C  0.94318944  0.64143608  0.07233902    -0.17100
C2189       C  0.94447629  0.62932366  0.08299770    -0.27500
C2190       C  0.95741671  0.61940320  0.08229472     0.18500
C2191       C  0.97862258  0.63500626  0.04785817     0.12500
C2192       C  0.95240177  0.65666533  0.04950797    -0.11900
H2193       H  0.93330923  0.64903515  0.07284304     0.12800
C2194       C  0.95929989  0.60530741  0.09225274    -0.22700
H2195       H  0.97859335  0.61442937  0.07042990     0.08400
C2196       C  0.99248739  0.64324052  0.04954779     0.04800
C2197       C  0.00325648  0.64305030  0.03753473    -0.19900
C2198       C  0.00045628  0.63467962  0.02401228    -0.12200
C2199       C  0.98628703  0.62688550  0.02214006     0.13500
C2200       C  0.97560473  0.62704760  0.03418685    -0.22600
C2201       C  0.99595269  0.65201253  0.06407358    -0.05700
H2202       H  0.01409432  0.64908610  0.03886835     0.15000
C2203       C  0.98183152  0.61866906  0.00752256    -0.15900
H2204       H  0.96481326  0.62090421  0.03292541     0.09300
H2205       H  0.96948918  0.60675942  0.09980918     0.07200
H2206       H  0.96113226  0.59506269  0.08482772     0.08400
H2207       H  0.94914586  0.60274759  0.09944799     0.07400
H2208       H  0.95181528  0.65185369  0.03769892     0.02300
H2209       H  0.96228997  0.66471785  0.05027216     0.02800
H2210       H  0.94169469  0.66331360  0.05162640     0.06300
H2211       H  0.00732333  0.65782114  0.06350038     0.05300
H2212       H  0.99605690  0.64399661  0.07402036    -0.00500
H2213       H  0.98702182  0.66094820  0.06596851     0.01000
H2214       H  0.98018940  0.60621656  0.00992786     0.04600
H2215       H  0.99042699  0.61990745  0.99820983     0.06600
H2216       H  0.97084917  0.62350762  0.00313909     0.07500
C2217       C  0.92615996  0.62599630  0.25148219    -0.22200
C2218       C  0.91284017  0.61732014  0.24892647     0.09800
C2219       C  0.90486056  0.61085695  0.26146880     0.10200
C2220       C  0.91001734  0.61390890  0.27645516    -0.17100
C2221       C  0.92307881  0.62308404  0.27909189    -0.27500
C2222       C  0.93157589  0.62873405  0.26639016     0.18500
C2223       C  0.90760968  0.61526427  0.23291937     0.12500
C2224       C  0.89099529  0.60073877  0.25901980    -0.11900
H2225       H  0.90360989  0.60941838  0.28616242     0.12800
C2226       C  0.94665462  0.63716403  0.26799350    -0.22700
H2227       H  0.93245392  0.63057047  0.24172611     0.08400
C2228       C  0.89691976  0.62546309  0.22621807     0.04800
C2229       C  0.89347396  0.62403428  0.21055058    -0.19900
C2230       C  0.90073486  0.61287517  0.20139348    -0.12200
C2231       C  0.91099382  0.60226283  0.20829223     0.13500
C2232       C  0.91440006  0.60370485  0.22398058    -0.22600
C2233       C  0.88967567  0.63826017  0.23542175    -0.05700
H2234       H  0.88561730  0.63215808  0.20526672     0.15000
C2235       C  0.91830327  0.58912923  0.19963288    -0.15900
H2236       H  0.92254214  0.59585728  0.22926210     0.09300
H2237       H  0.94539181  0.64911647  0.26363021     0.07200
H2238       H  0.95558973  0.63117745  0.26109498     0.08400
H2239       H  0.95094218  0.63757031  0.27996407     0.07400
H2240       H  0.89428941  0.59056393  0.25202707     0.02300
H2241       H  0.88184570  0.60720057  0.25291462     0.02800
H2242       H  0.88617784  0.59655325  0.27008658     0.06300
H2243       H  0.88172529  0.64530928  0.22831956     0.05300
H2244       H  0.89877098  0.64597398  0.24000277    -0.00500
H2245       H  0.88300648  0.63342085  0.24515630     0.01000
H2246       H  0.93097643  0.59069340  0.19939549     0.04600
H2247       H  0.91407690  0.58805102  0.18767723     0.06600
H2248       H  0.91561316  0.57811125  0.20554289     0.07500
C2249       C  0.79483983  0.64168875  0.10804320    -0.22200
C2250       C  0.78985687  0.63143472  0.09668042     0.09800
C2251       C  0.80029357  0.62097731  0.09002847     0.10200
C2252       C  0.81561856  0.62092843  0.09505410    -0.17100
C2253       C  0.82061501  0.63109121  0.10657534    -0.27500
C2254       C  0.81014884  0.64180320  0.11298052     0.18500
C2255       C  0.77373183  0.63243196  0.09159369     0.12500
C2256       C  0.79518350  0.60980825  0.07781230    -0.11900
H2257       H  0.82367271  0.61274036  0.09018385     0.12800
C2258       C  0.81474433  0.65393488  0.12450850    -0.22700
H2259       H  0.78675454  0.64987699  0.11288303     0.08400
C2260       C  0.76177444  0.62551639  0.10007352     0.04800
C2261       C  0.74649423  0.62839312  0.09584306    -0.19900
C2262       C  0.74300602  0.63817266  0.08345816    -0.12200
C2263       C  0.75505931  0.64429947  0.07440600     0.13500
C2264       C  0.77031051  0.64146373  0.07871133    -0.22600
C2265       C  0.76516459  0.61545128  0.11377317    -0.05700
H2266       H  0.73724173  0.62361114  0.10270353     0.15000
C2267       C  0.75230462  0.65365897  0.06007167    -0.15900
H2268       H  0.77961521  0.64654853  0.07213132     0.09300
H2269       H  0.80857034  0.65192044  0.13550132     0.07200
H2270       H  0.81154082  0.66548392  0.12004131     0.08400
H2271       H  0.82725183  0.65422983  0.12683108     0.07400
H2272       H  0.79080918  0.61622138  0.06767265     0.02300
H2273       H  0.78588178  0.60234260  0.08239911     0.02800
H2274       H  0.80477570  0.60229635  0.07395321     0.06300
H2275       H  0.75446640  0.61086032  0.11904432     0.05300
H2276       H  0.77139848  0.62218424  0.12265298    -0.00500
H2277       H  0.77238531  0.60554288  0.11016924     0.01000
H2278       H  0.75683889  0.66549935  0.06172111     0.04600
H2279       H  0.73999560  0.65439456  0.05687843     0.06600
H2280       H  0.75840730  0.64822672  0.05025321     0.07500
C2281       C  0.96482810  0.93437058  0.38954639    -0.22200
C2282       C  0.97597451  0.93116178  0.37839553     0.09800
C2283       C  0.97495363  0.91757329  0.36961002     0.10200
C2284       C  0.96243276  0.90766171  0.37188808    -0.17100
C2285       C  0.95112581  0.91087051  0.38298834    -0.27500
C2286       C  0.95257557  0.92423542  0.39223107     0.18500
C2287       C  0.98900005  0.94190457  0.37668471     0.12500
C2288       C  0.98718571  0.91342558  0.35805103    -0.11900
H2289       H  0.96144042  0.89736203  0.36491704     0.12800
C2290       C  0.94208404  0.92783582  0.40555871    -0.22700
H2291       H  0.96596406  0.94466379  0.39652145     0.08400
C2292       C  0.98876471  0.95383669  0.36570076     0.04800
C2293       C  0.00128021  0.96397174  0.36483070    -0.19900
C2294       C  0.01382469  0.96258789  0.37489506    -0.12200
C2295       C  0.01412605  0.95045543  0.38577290     0.13500
C2296       C  0.00160278  0.94032883  0.38658352    -0.22600
C2297       C  0.97514976  0.95611797  0.35522345    -0.05700
H2298       H  0.00107813  0.97331213  0.35655291     0.15000
C2299       C  0.02756587  0.94747572  0.39633195    -0.15900
H2300       H  0.00169197  0.93105756  0.39494527     0.09300
H2301       H  0.93561313  0.93859061  0.40314082     0.07200
H2302       H  0.94908822  0.92954945  0.41610111     0.08400
H2303       H  0.93383346  0.91850946  0.40818354     0.07400
H2304       H  0.99846873  0.91234741  0.36393204     0.02300
H2305       H  0.98801740  0.92247276  0.34908727     0.02800
H2306       H  0.98465107  0.90230915  0.35226193     0.06300
H2307       H  0.97679299  0.96613254  0.34744345     0.05300
H2308       H  0.96465400  0.95818984  0.36219405    -0.00500
H2309       H  0.97337190  0.94573993  0.34801036     0.01000
H2310       H  0.02384624  0.94887160  0.40846429     0.04600
H2311       H  0.03749450  0.95516622  0.39419687     0.06600
H2312       H  0.03170432  0.93549142  0.39465228     0.07500
C2313       C  0.80408840  0.90058643  0.39159261    -0.22200
C2314       C  0.79608448  0.89436970  0.37906225     0.09800
C2315       C  0.80340851  0.88373810  0.36925081     0.10200
C2316       C  0.81866279  0.87951426  0.37219692    -0.17100
C2317       C  0.82679937  0.88580406  0.38462619    -0.27500
C2318       C  0.81942612  0.89641978  0.39451781     0.18500
C2319       C  0.77998375  0.89902632  0.37632980     0.12500
C2320       C  0.79506712  0.87676669  0.35575252    -0.11900
H2321       H  0.82433825  0.87135486  0.36465908     0.12800
C2322       C  0.82743632  0.90290338  0.40844389    -0.22700
H2323       H  0.79827418  0.90866524  0.39911030     0.08400
C2324       C  0.76769777  0.89190680  0.38416669     0.04800
C2325       C  0.75255247  0.89592352  0.38034685    -0.19900
C2326       C  0.74948184  0.90668868  0.36869921    -0.12200
C2327       C  0.76184353  0.91404531  0.36107586     0.13500
C2328       C  0.77697812  0.91014252  0.36505899    -0.22600
C2329       C  0.77059339  0.87986613  0.39629613    -0.05700
H2330       H  0.74304657  0.89037545  0.38622650     0.15000
C2331       C  0.75921608  0.92630296  0.34908682    -0.15900
H2332       H  0.78655249  0.91557518  0.35918016     0.09300
H2333       H  0.83146921  0.89335832  0.41592603     0.07200
H2334       H  0.81965039  0.91033109  0.41533906     0.08400
H2335       H  0.83738922  0.91003613  0.40487615     0.07400
H2336       H  0.79151906  0.88597475  0.34763921     0.02300
H2337       H  0.78469905  0.87051483  0.35983467     0.02800
H2338       H  0.80243339  0.86849221  0.34938106     0.06300
H2339       H  0.75968667  0.87531310  0.40115801     0.05300
H2340       H  0.77739927  0.88492688  0.40583739    -0.00500
H2341       H  0.77707046  0.87008061  0.39123617     0.01000
H2342       H  0.75189231  0.93560276  0.35389787     0.04600
H2343       H  0.75359033  0.92127957  0.33882318     0.06600
H2344       H  0.77020103  0.93156873  0.34521708     0.07500
C2345       C  0.92614614  0.76859954  0.38639970    -0.22200
C2346       C  0.91823707  0.76049731  0.37495624     0.09800
C2347       C  0.90646390  0.76784854  0.36656091     0.10200
C2348       C  0.90295593  0.78328881  0.36970886    -0.17100
C2349       C  0.91098837  0.79154163  0.38102732    -0.27500
C2350       C  0.92254774  0.78399252  0.38971666     0.18500
C2351       C  0.92216631  0.74417807  0.37214455     0.12500
C2352       C  0.89781802  0.75946205  0.35409854    -0.11900
H2353       H  0.89412579  0.78905724  0.36305344     0.12800
C2354       C  0.93087399  0.79146730  0.40296657    -0.22700
H2355       H  0.93500328  0.76277026  0.39297665     0.08400
C2356       C  0.93464352  0.73997209  0.36268627     0.04800
C2357       C  0.93729571  0.72432956  0.35961770    -0.19900
C2358       C  0.92775490  0.71285448  0.36582167    -0.12200
C2359       C  0.91513835  0.71714900  0.37520823     0.13500
C2360       C  0.91270593  0.73276635  0.37845530    -0.22600
C2361       C  0.94498249  0.75200295  0.35569175    -0.05700
H2362       H  0.94687346  0.72101859  0.35235167     0.15000
C2363       C  0.90347402  0.70583030  0.38130820    -0.15900
H2364       H  0.90300829  0.73613284  0.38554544     0.09300
H2365       H  0.94328823  0.79253828  0.40016692     0.07200
H2366       H  0.92961786  0.78418219  0.41339042     0.08400
H2367       H  0.92631848  0.80297614  0.40596458     0.07400
H2368       H  0.89168639  0.74940494  0.35905370     0.02300
H2369       H  0.90599642  0.75540287  0.34517008     0.02800
H2370       H  0.88916681  0.76699235  0.34846028     0.06300
H2371       H  0.95410700  0.74675235  0.34845300     0.05300
H2372       H  0.95064027  0.75875570  0.36493522    -0.00500
H2373       H  0.93810393  0.75988850  0.34835975     0.01000
H2374       H  0.90386522  0.70575545  0.39406589     0.04600
H2375       H  0.90519810  0.69394084  0.37710419     0.06600
H2376       H  0.89178430  0.70939352  0.37757865     0.07500
C2377       C  0.63215007  0.95943980  0.03415978    -0.22200
C2378       C  0.62531578  0.96349961  0.04816450     0.09800
C2379       C  0.61738901  0.97759831  0.04952720     0.10200
C2380       C  0.61638261  0.98735835  0.03670416    -0.17100
C2381       C  0.62343377  0.98342578  0.02273125    -0.27500
C2382       C  0.63135198  0.96927028  0.02139413     0.18500
C2383       C  0.62656326  0.95265248  0.06118346     0.12500
C2384       C  0.61015674  0.98235600  0.06452560    -0.11900
H2385       H  0.61038452  0.99826316  0.03767494     0.12800
C2386       C  0.63855704  0.96428817  0.00643442    -0.22700
H2387       H  0.63812244  0.94851559  0.03324998     0.08400
C2388       C  0.61582380  0.94065749  0.06318299     0.04800
C2389       C  0.61798695  0.93003127  0.07512338    -0.19900
C2390       C  0.63063759  0.93116192  0.08507893    -0.12200
C2391       C  0.64139704  0.94322716  0.08306455     0.13500
C2392       C  0.63917465  0.95388292  0.07112620    -0.22600
C2393       C  0.60224292  0.93896250  0.05256027    -0.05700
H2394       H  0.60983159  0.92070385  0.07663579     0.15000
C2395       C  0.65562859  0.94445373  0.09287785    -0.15900
H2396       H  0.64745693  0.96304360  0.06931477     0.09300
H2397       H  0.64357423  0.95255118  0.00727083     0.07200
H2398       H  0.64794998  0.97231037  0.00320499     0.08400
H2399       H  0.62971434  0.96415690  0.99721901     0.07400
H2400       H  0.61913553  0.98312165  0.07357034     0.02300
H2401       H  0.60139366  0.97375107  0.06804217     0.02800
H2402       H  0.60443529  0.99375901  0.06361805     0.06300
H2403       H  0.59495040  0.92895353  0.05575033     0.05300
H2404       H  0.60631926  0.93724352  0.04058712    -0.00500
H2405       H  0.59501482  0.94948713  0.05305340     0.01000
H2406       H  0.66323448  0.95398242  0.08901647     0.04600
H2407       H  0.66229315  0.93356284  0.09222376     0.06600
H2408       H  0.65241703  0.94678561  0.10498374     0.07500
C2409       C  0.63497452  0.88843181  0.23227773    -0.22200
C2410       C  0.64612563  0.89893395  0.23721618     0.09800
C2411       C  0.65503438  0.90703974  0.22635858     0.10200
C2412       C  0.65266467  0.90430865  0.21065575    -0.17100
C2413       C  0.64176779  0.89348311  0.20564465    -0.27500
C2414       C  0.63251828  0.88571226  0.21659848     0.18500
C2415       C  0.64891669  0.90059506  0.25384256     0.12500
C2416       C  0.66730750  0.91821797  0.23137835    -0.11900
H2417       H  0.65973471  0.91024156  0.20226512     0.12800
C2418       C  0.61967711  0.87486355  0.21229007    -0.22700
H2419       H  0.62812783  0.88232668  0.24073974     0.08400
C2420       C  0.64135235  0.91186814  0.26270285     0.04800
C2421       C  0.64509585  0.91338232  0.27832017    -0.19900
C2422       C  0.65609677  0.90374120  0.28521248    -0.12200
C2423       C  0.66282113  0.89172046  0.27646522     0.13500
C2424       C  0.65938109  0.89055621  0.26080020    -0.22600
C2425       C  0.62950015  0.92234672  0.25562368    -0.05700
H2426       H  0.63978087  0.92244724  0.28503906     0.15000
C2427       C  0.67317593  0.87955043  0.28324725    -0.15900
H2428       H  0.66478886  0.88162488  0.25395695     0.09300
H2429       H  0.60885639  0.87867116  0.21791181     0.07200
H2430       H  0.62248555  0.86305941  0.21632540     0.08400
H2431       H  0.61735774  0.87450672  0.19979110     0.07400
H2432       H  0.67601524  0.91214059  0.23847763     0.02300
H2433       H  0.66209555  0.92761493  0.23827477     0.02800
H2434       H  0.67329138  0.92349549  0.22139878     0.06300
H2435       H  0.62466908  0.93050876  0.26418690     0.05300
H2436       H  0.61989696  0.91536625  0.25090526    -0.00500
H2437       H  0.63475447  0.92915792  0.24619019     0.01000
H2438       H  0.66873284  0.86796311  0.28014970     0.04600
H2439       H  0.67367468  0.87989614  0.29595265     0.06600
H2440       H  0.68496882  0.88082938  0.27851460     0.07500
C2441       C  0.64650315  0.75003756  0.11100557    -0.22200
C2442       C  0.65223559  0.76101103  0.10069271     0.09800
C2443       C  0.66051617  0.75621378  0.08760743     0.10200
C2444       C  0.66285514  0.74042372  0.08509771    -0.17100
C2445       C  0.65708233  0.72936793  0.09537356    -0.27500
C2446       C  0.64886103  0.73423597  0.10855620     0.18500
C2447       C  0.65030923  0.77750046  0.10442822     0.12500
C2448       C  0.66708295  0.76776791  0.07647057    -0.11900
H2449       H  0.66928241  0.73667225  0.07509687     0.12800
C2450       C  0.64326825  0.72296590  0.12049683    -0.22700
H2451       H  0.64039898  0.75390885  0.12116372     0.08400
C2452       C  0.63755560  0.78604266  0.09918808     0.04800
C2453       C  0.63624246  0.80162265  0.10330878    -0.19900
C2454       C  0.64726331  0.80870533  0.11275890    -0.12200
C2455       C  0.66020210  0.80013669  0.11776261     0.13500
C2456       C  0.66144814  0.78459351  0.11363033    -0.22600
C2457       C  0.62522089  0.77862198  0.08954995    -0.05700
H2458       H  0.62634058  0.80819246  0.09951392     0.15000
C2459       C  0.67318724  0.80700647  0.12699094    -0.15900
H2460       H  0.67128269  0.77795572  0.11750517     0.09300
H2461       H  0.63427838  0.71539663  0.11556397     0.07200
H2462       H  0.63812973  0.72892773  0.13056040     0.08400
H2463       H  0.65303321  0.71587335  0.12469202     0.07400
H2464       H  0.67530853  0.77543754  0.08252895     0.02300
H2465       H  0.65769661  0.77484069  0.07148447     0.02800
H2466       H  0.67328954  0.76206249  0.06687306     0.06300
H2467       H  0.61598122  0.78691663  0.08651169     0.05300
H2468       H  0.61993723  0.76893988  0.09600951    -0.00500
H2469       H  0.63025970  0.77413848  0.07872060     0.01000
H2470       H  0.67368738  0.80140887  0.13845981     0.04600
H2471       H  0.67216899  0.81960376  0.12859125     0.06600
H2472       H  0.68424404  0.80494977  0.12093354     0.07500
C2473       C  0.15131726  0.57244077  0.41983695    -0.22200
C2474       C  0.13927769  0.56182973  0.41838385     0.09800
C2475       C  0.12882404  0.56311631  0.40607518     0.10200
C2476       C  0.13043909  0.57532891  0.39564093    -0.17100
C2477       C  0.14222448  0.58626338  0.39733597    -0.27500
C2478       C  0.15310207  0.58452488  0.40932474     0.18500
C2479       C  0.13762263  0.54982092  0.43027767     0.12500
C2480       C  0.11600171  0.55163449  0.40400629    -0.11900
H2481       H  0.12224151  0.57657303  0.38633126     0.12800
C2482       C  0.16700988  0.59474537  0.41112535    -0.22700
H2483       H  0.15943518  0.57122424  0.42922970     0.08400
C2484       C  0.14735115  0.53687461  0.43068785     0.04800
C2485       C  0.14626742  0.52661988  0.44307388    -0.19900
C2486       C  0.13562097  0.52895005  0.45503714    -0.12200
C2487       C  0.12550341  0.54177879  0.45429168     0.13500
C2488       C  0.12670280  0.55201030  0.44188180    -0.22600
C2489       C  0.15880468  0.53387263  0.41803802    -0.05700
H2490       H  0.15382928  0.51669362  0.44342739     0.15000
C2491       C  0.11376471  0.54569995  0.46643234    -0.15900
H2492       H  0.11930497  0.56206440  0.44144868     0.09300
H2493       H  0.17755706  0.58752696  0.41124423     0.07200
H2494       H  0.16625095  0.60111130  0.42216739     0.08400
H2495       H  0.16838377  0.60314320  0.40165508     0.07400
H2496       H  0.10826842  0.55186912  0.41415616     0.02300
H2497       H  0.12089203  0.53988999  0.40272328     0.02800
H2498       H  0.10899786  0.55420177  0.39363845     0.06300
H2499       H  0.16529826  0.52302983  0.41999547     0.05300
H2500       H  0.16720998  0.54347210  0.41739045    -0.00500
H2501       H  0.15269107  0.53288069  0.40687343     0.01000
H2502       H  0.11618369  0.55737189  0.47106625     0.04600
H2503       H  0.11361386  0.53773376  0.47625490     0.06600
H2504       H  0.10210538  0.54570795  0.46121844     0.07500
C2505       C  0.47857880  0.95266651  0.41040534    -0.22200
C2506       C  0.47834026  0.94372571  0.42379023     0.09800
C2507       C  0.46670020  0.93263506  0.42592135     0.10200
C2508       C  0.45555580  0.93062367  0.41447441    -0.17100
C2509       C  0.45572585  0.93951362  0.40098052    -0.27500
C2510       C  0.46725607  0.95091842  0.39904946     0.18500
C2511       C  0.49012857  0.94638470  0.43570506     0.12500
C2512       C  0.46615846  0.92282568  0.44021027    -0.11900
H2513       H  0.44678091  0.92188063  0.41597864     0.12800
C2514       C  0.46764508  0.96197852  0.38568575    -0.22700
H2515       H  0.48745191  0.96133692  0.40899957     0.08400
C2516       C  0.50460025  0.93910474  0.43503431     0.04800
C2517       C  0.51492212  0.94100481  0.44727094    -0.19900
C2518       C  0.51105564  0.95005240  0.46006777    -0.12200
C2519       C  0.49656330  0.95743765  0.46066316     0.13500
C2520       C  0.48634301  0.95562650  0.44834470    -0.22600
C2521       C  0.50898632  0.92914017  0.42155676    -0.05700
H2522       H  0.52602967  0.93533421  0.44691479     0.15000
C2523       C  0.49112853  0.96660455  0.47435540    -0.15900
H2524       H  0.47511128  0.96104250  0.44882207     0.09300
H2525       H  0.47809752  0.95983691  0.37867036     0.07200
H2526       H  0.46804401  0.97397776  0.39009420     0.08400
H2527       H  0.45739068  0.96123380  0.37820752     0.07400
H2528       H  0.46476830  0.93025935  0.45049721     0.02300
H2529       H  0.47699104  0.91613820  0.44127874     0.02800
H2530       H  0.45640502  0.91456519  0.43994589     0.06300
H2531       H  0.52070229  0.92422171  0.42291189     0.05300
H2532       H  0.50879994  0.93608949  0.41084187    -0.00500
H2533       H  0.50071348  0.91945937  0.42044880     0.01000
H2534       H  0.48882739  0.97866626  0.47078970     0.04600
H2535       H  0.49947001  0.96679786  0.48396644     0.06600
H2536       H  0.48030910  0.96149067  0.47883866     0.07500
C2537       C  0.45807912  0.58390329  0.06142907    -0.22200
C2538       C  0.46870590  0.58262040  0.07345381     0.09800
C2539       C  0.46885154  0.59367281  0.08531424     0.10200
C2540       C  0.45822605  0.60580146  0.08493049    -0.17100
C2541       C  0.44747829  0.60709532  0.07295941    -0.27500
C2542       C  0.44752063  0.59610377  0.06092451     0.18500
C2543       C  0.48012847  0.57005218  0.07301385     0.12500
C2544       C  0.48017775  0.59259906  0.09838010    -0.11900
H2545       H  0.45816800  0.61421989  0.09413410     0.12800
C2546       C  0.43715587  0.59717925  0.04706844    -0.22700
H2547       H  0.45824788  0.57549467  0.05221126     0.08400
C2548       C  0.47693686  0.55537216  0.07917437     0.04800
C2549       C  0.48835451  0.54394891  0.07868912    -0.19900
C2550       C  0.50281035  0.54696704  0.07215801    -0.12200
C2551       C  0.50609221  0.56185649  0.06636161     0.13500
C2552       C  0.49458564  0.57312510  0.06664934    -0.22600
C2553       C  0.46152677  0.55183911  0.08625319    -0.05700
H2554       H  0.48594291  0.53257264  0.08323744     0.15000
C2555       C  0.52172345  0.56655374  0.06043822    -0.15900
H2556       H  0.49701367  0.58453973  0.06219026     0.09300
H2557       H  0.42946078  0.58697894  0.04669058     0.07200
H2558       H  0.44427433  0.59736128  0.03646595     0.08400
H2559       H  0.42999122  0.60770980  0.04692175     0.07400
H2560       H  0.49209811  0.59323261  0.09384843     0.02300
H2561       H  0.47861643  0.58151201  0.10454943     0.02800
H2562       H  0.47862290  0.60210594  0.10677941     0.06300
H2563       H  0.46095152  0.53981918  0.09059378     0.05300
H2564       H  0.45232224  0.55337782  0.07754076    -0.00500
H2565       H  0.45936909  0.55973938  0.09605266     0.01000
H2566       H  0.52085297  0.56968708  0.04809369     0.04600
H2567       H  0.53058682  0.55750226  0.06172785     0.06600
H2568       H  0.52585083  0.57673831  0.06697095     0.07500
C2569       C  0.44974219  0.94922628  0.07434390    -0.22200
C2570       C  0.46027364  0.94741219  0.06231104     0.09800
C2571       C  0.46961336  0.93416899  0.06166154     0.10200
C2572       C  0.46831068  0.92303053  0.07325245    -0.17100
C2573       C  0.45786226  0.92485208  0.08543475    -0.27500
C2574       C  0.44817011  0.93796968  0.08578290     0.18500
C2575       C  0.46107861  0.95941120  0.05031917     0.12500
C2576       C  0.48087712  0.93179567  0.04871569    -0.11900
H2577       H  0.47566444  0.91295159  0.07293313     0.12800
C2578       C  0.43555675  0.94020627  0.09746885    -0.22700
H2579       H  0.44242912  0.95934572  0.07458852     0.08400
C2580       C  0.45028370  0.95995614  0.03824158     0.04800
C2581       C  0.45143629  0.97164029  0.02717461    -0.19900
C2582       C  0.46325647  0.98264007  0.02784988    -0.12200
C2583       C  0.47400372  0.98212700  0.04007946     0.13500
C2584       C  0.47275076  0.97047862  0.05118088    -0.22600
C2585       C  0.43768662  0.94810466  0.03697247    -0.05700
H2586       H  0.44319288  0.97207735  0.01783364     0.15000
C2587       C  0.48643614  0.99411177  0.04185041    -0.15900
H2588       H  0.48087374  0.96999248  0.06062537     0.09300
H2589       H  0.42447076  0.94213582  0.09141945     0.07200
H2590       H  0.43814649  0.95045148  0.10465264     0.08400
H2591       H  0.43385520  0.93012672  0.10505846     0.07400
H2592       H  0.48946555  0.94125771  0.04865669     0.02300
H2593       H  0.47465907  0.93170097  0.03756609     0.02800
H2594       H  0.48715803  0.92071484  0.04986927     0.06300
H2595       H  0.43035581  0.95008080  0.02670258     0.05300
H2596       H  0.43021739  0.94858396  0.04731089    -0.00500
H2597       H  0.44281150  0.93642805  0.03603156     0.01000
H2598       H  0.49311268  0.99244232  0.05261029     0.04600
H2599       H  0.48121189  0.00578224  0.04223086     0.06600
H2600       H  0.49464661  0.99339162  0.03211525     0.07500
C2601       C  0.42444369  0.91177749  0.25431052    -0.22200
C2602       C  0.43697109  0.90174911  0.25283874     0.09800
C2603       C  0.44422657  0.89583710  0.26606784     0.10200
C2604       C  0.43872002  0.90010765  0.28059475    -0.17100
C2605       C  0.42601674  0.90997071  0.28212211    -0.27500
C2606       C  0.41882535  0.91596716  0.26882566     0.18500
C2607       C  0.44218524  0.89754516  0.23725570     0.12500
C2608       C  0.45761069  0.88489347  0.26482347    -0.11900
H2609       H  0.44421528  0.89555910  0.29082160     0.12800
C2610       C  0.40565730  0.92720907  0.26983206    -0.22700
H2611       H  0.41905269  0.91631483  0.24402172     0.08400
C2612       C  0.43446057  0.88619641  0.22863588     0.04800
C2613       C  0.43941699  0.88299335  0.21366045    -0.19900
C2614       C  0.45186479  0.89093970  0.20710512    -0.12200
C2615       C  0.45983008  0.90207714  0.21591154     0.13500
C2616       C  0.45483316  0.90527136  0.23092070    -0.22600
C2617       C  0.42104961  0.87744106  0.23528062    -0.05700
H2618       H  0.43338135  0.87439359  0.20693578     0.15000
C2619       C  0.47387564  0.91020415  0.20980840    -0.15900
H2620       H  0.46075627  0.91386562  0.23775514     0.09300
H2621       H  0.39548214  0.92159994  0.27507397     0.07200
H2622       H  0.40216675  0.93145333  0.25829911     0.08400
H2623       H  0.40910113  0.93731686  0.27685251     0.07400
H2624       H  0.46727429  0.89056855  0.25869897     0.02300
H2625       H  0.45406798  0.87445153  0.25836077     0.02800
H2626       H  0.46180756  0.88121151  0.27631254     0.06300
H2627       H  0.41645864  0.86881060  0.22704797     0.05300
H2628       H  0.41161395  0.88553529  0.23820856    -0.00500
H2629       H  0.42473887  0.87126859  0.24583701     0.01000
H2630       H  0.47075635  0.91760153  0.19991036     0.04600
H2631       H  0.48259249  0.90159809  0.20617225     0.06600
H2632       H  0.47920863  0.91772507  0.21865838     0.07500
C2633       C  0.45096879  0.77564375  0.11836766    -0.22200
C2634       C  0.43865157  0.77418134  0.10809175     0.09800
C2635       C  0.43138926  0.78748004  0.10229634     0.10200
C2636       C  0.43670607  0.80202521  0.10685315    -0.17100
C2637       C  0.44900170  0.80358368  0.11722014    -0.27500
C2638       C  0.45636692  0.79018455  0.12292056     0.18500
C2639       C  0.43331981  0.75859100  0.10377451     0.12500
C2640       C  0.41789381  0.78629709  0.09149328    -0.11900
H2641       H  0.43100625  0.81225643  0.10254081     0.12800
C2642       C  0.47025206  0.79066633  0.13329046    -0.22700
H2643       H  0.45652808  0.76534560  0.12272057     0.08400
C2644       C  0.43922889  0.75085488  0.09080198     0.04800
C2645       C  0.43354513  0.73617689  0.08706861    -0.19900
C2646       C  0.42205768  0.72913503  0.09599946    -0.12200
C2647       C  0.41646880  0.73678897  0.10925316     0.13500
C2648       C  0.42214742  0.75146677  0.11291489    -0.22600
C2649       C  0.45156671  0.75807393  0.08100042    -0.05700
H2650       H  0.43800425  0.73020376  0.07707489     0.15000
C2651       C  0.40508266  0.72933319  0.12000012    -0.15900
H2652       H  0.41788069  0.75745124  0.12298836     0.09300
H2653       H  0.47976628  0.78401859  0.12794777     0.07200
H2654       H  0.46735849  0.78536151  0.14454206     0.08400
H2655       H  0.47464227  0.80244951  0.13531624     0.07400
H2656       H  0.40838180  0.77991989  0.09715672     0.02300
H2657       H  0.42133922  0.78008945  0.08088959     0.02800
H2658       H  0.41351057  0.79782731  0.08811054     0.06300
H2659       H  0.45495087  0.75045873  0.07131607     0.05300
H2660       H  0.46193613  0.76033460  0.08810099    -0.00500
H2661       H  0.44737483  0.76911272  0.07611859     0.01000
H2662       H  0.40311098  0.73643303  0.13043747     0.04600
H2663       H  0.40947687  0.71793493  0.12377809     0.06600
H2664       H  0.39381860  0.72792016  0.11423226     0.07500
C2665       C  0.09189163  0.93744146  0.37426269    -0.22200
C2666       C  0.10460161  0.94109539  0.38345225     0.09800
C2667       C  0.10512191  0.95541248  0.39110089     0.10200
C2668       C  0.09297343  0.96591509  0.38913862    -0.17100
C2669       C  0.08035193  0.96239640  0.37968080    -0.27500
C2670       C  0.07962517  0.94777640  0.37246923     0.18500
C2671       C  0.11715906  0.92963793  0.38491677     0.12500
C2672       C  0.11849259  0.95956488  0.40129351    -0.11900
H2673       H  0.09349078  0.97706112  0.39473218     0.12800
C2674       C  0.06590568  0.94236860  0.36332297    -0.22700
H2675       H  0.09144197  0.92630993  0.36862232     0.08400
C2676       C  0.11590730  0.91692932  0.39493389     0.04800
C2677       C  0.12785968  0.90607639  0.39552625    -0.19900
C2678       C  0.14102416  0.90757279  0.38626863    -0.12200
C2679       C  0.14204792  0.92015851  0.37590516     0.13500
C2680       C  0.13020199  0.93115193  0.37558410    -0.22600
C2681       C  0.10202274  0.91492703  0.40509882    -0.05700
H2682       H  0.12701303  0.89646558  0.40343964     0.15000
C2683       C  0.15492835  0.92203629  0.36444628    -0.15900
H2684       H  0.13093619  0.94078012  0.36766854     0.09300
H2685       H  0.06168156  0.93130610  0.36815827     0.07200
H2686       H  0.06934141  0.94049035  0.35117363     0.08400
H2687       H  0.05609100  0.95048122  0.36361838     0.07400
H2688       H  0.12928829  0.95960810  0.39447775     0.02300
H2689       H  0.11951815  0.95100684  0.41072738     0.02800
H2690       H  0.11704510  0.97114709  0.40651817     0.06300
H2691       H  0.10296577  0.90447734  0.41240908     0.05300
H2692       H  0.09152113  0.91378781  0.39793226    -0.00500
H2693       H  0.10080319  0.92508407  0.41275592     0.01000
H2694       H  0.15001778  0.92315441  0.35270980     0.04600
H2695       H  0.16289205  0.91211313  0.36412198     0.06600
H2696       H  0.16156045  0.93262633  0.36714129     0.07500
C2697       C  0.28616111  0.89389917  0.39677052    -0.22200
C2698       C  0.29376153  0.88573689  0.38515313     0.09800
C2699       C  0.28647539  0.87314488  0.37799133     0.10200
C2700       C  0.27145086  0.86924991  0.38233486    -0.17100
C2701       C  0.26356735  0.87774033  0.39359456    -0.27500
C2702       C  0.27111356  0.89003985  0.40113008     0.18500
C2703       C  0.30922969  0.89085852  0.38041484     0.12500
C2704       C  0.29446445  0.86402735  0.36560879    -0.11900
H2705       H  0.26568968  0.85975741  0.37664550     0.12800
C2706       C  0.26361453  0.89878298  0.41407973    -0.22700
H2707       H  0.29201026  0.90342021  0.40232700     0.08400
C2708       C  0.31114872  0.90308102  0.36990769     0.04800
C2709       C  0.32604484  0.90770412  0.36584253    -0.19900
C2710       C  0.33898292  0.90045944  0.37218844    -0.12200
C2711       C  0.33704110  0.88802113  0.38250547     0.13500
C2712       C  0.32212048  0.88339032  0.38653753    -0.22600
C2713       C  0.29747386  0.91113485  0.36293773    -0.05700
H2714       H  0.32762366  0.91710547  0.35778653     0.15000
C2715       C  0.35059653  0.87923319  0.38879965    -0.15900
H2716       H  0.32046255  0.87388646  0.39445515     0.09300
H2717       H  0.27161586  0.90727834  0.41929988     0.07200
H2718       H  0.25997630  0.89063691  0.42322783     0.08400
H2719       H  0.25348776  0.90523110  0.40980932     0.07400
H2720       H  0.30511016  0.85875954  0.37029993     0.02300
H2721       H  0.29751435  0.87172826  0.35588114     0.02800
H2722       H  0.28705565  0.85462953  0.36110866     0.06300
H2723       H  0.30102487  0.92034896  0.35481643     0.05300
H2724       H  0.29043159  0.91648778  0.37214304    -0.00500
H2725       H  0.29032056  0.90269917  0.35654088     0.01000
H2726       H  0.35773773  0.88684855  0.39612116     0.04600
H2727       H  0.35766621  0.87471016  0.37917393     0.06600
H2728       H  0.34689533  0.86930697  0.39596287     0.07500
C2729       C  0.16228576  0.76351411  0.40068480    -0.22200
C2730       C  0.16853545  0.75614059  0.38779625     0.09800
C2731       C  0.17959241  0.76381515  0.37872617     0.10200
C2732       C  0.18393801  0.77889311  0.38259177    -0.17100
C2733       C  0.17730527  0.78650251  0.39518852    -0.27500
C2734       C  0.16661013  0.77858973  0.40457848     0.18500
C2735       C  0.16318391  0.74044796  0.38384655     0.12500
C2736       C  0.18660175  0.75615810  0.36485632    -0.11900
H2737       H  0.19216570  0.78496566  0.37544667     0.12800
C2738       C  0.15982998  0.78550874  0.41895062    -0.22700
H2739       H  0.15396506  0.75745885  0.40774198     0.08400
C2740       C  0.17004207  0.72724710  0.39032582     0.04800
C2741       C  0.16490758  0.71260507  0.38579829    -0.19900
C2742       C  0.15312391  0.71089144  0.37488052    -0.12200
C2743       C  0.14585622  0.72419285  0.36884981     0.13500
C2744       C  0.15110352  0.73880531  0.37332016    -0.22600
C2745       C  0.18295379  0.72864754  0.40178188    -0.05700
H2746       H  0.17045811  0.70243812  0.39044236     0.15000
C2747       C  0.13227974  0.72348762  0.35809060    -0.15900
H2748       H  0.14570624  0.74902157  0.36858566     0.09300
H2749       H  0.16244293  0.77794445  0.42891386     0.07200
H2750       H  0.14715714  0.78643698  0.41768724     0.08400
H2751       H  0.16448886  0.79707733  0.42162188     0.07400
H2752       H  0.17744849  0.75325625  0.35644181     0.02300
H2753       H  0.19259479  0.74543528  0.36838414     0.02800
H2754       H  0.19508808  0.76375420  0.35905124     0.06300
H2755       H  0.18711062  0.71718674  0.40564934     0.05300
H2756       H  0.17892863  0.73510336  0.41203586    -0.00500
H2757       H  0.19277423  0.73488430  0.39650496     0.01000
H2758       H  0.12255207  0.73008425  0.36310428     0.04600
H2759       H  0.12808994  0.71162141  0.35606070     0.06600
H2760       H  0.13543729  0.72871692  0.34687550     0.07500
C2761       C  0.09265964  0.63982909  0.03592826    -0.22200
C2762       C  0.09040430  0.63028526  0.04869523     0.09800
C2763       C  0.07674576  0.62167097  0.05006951     0.10200
C2764       C  0.06564736  0.62263934  0.03841469    -0.17100
C2765       C  0.06791528  0.63207857  0.02548452    -0.27500
C2766       C  0.08170814  0.64069640  0.02414704     0.18500
C2767       C  0.10282779  0.62911924  0.06018570     0.12500
C2768       C  0.07396523  0.61143829  0.06377883    -0.11900
H2769       H  0.05510984  0.61603190  0.03941617     0.12800
C2770       C  0.08578330  0.65025764  0.01023700    -0.22700
H2771       H  0.10329556  0.64628849  0.03493176     0.08400
C2772       C  0.11521317  0.61885015  0.05812401     0.04800
C2773       C  0.12710614  0.61858978  0.06899078    -0.19900
C2774       C  0.12682300  0.62831399  0.08187476    -0.12200
C2775       C  0.11443781  0.63873546  0.08382106     0.13500
C2776       C  0.10251231  0.63888456  0.07297616    -0.22600
C2777       C  0.11580487  0.60813917  0.04450824    -0.05700
H2778       H  0.13658122  0.61060204  0.06754350     0.15000
C2779       C  0.11367198  0.65030755  0.09671757    -0.15900
H2780       H  0.09303672  0.64689506  0.07433029     0.09300
H2781       H  0.09709236  0.64645470  0.00566746     0.07200
H2782       H  0.08664910  0.66256384  0.01360037     0.08400
H2783       H  0.07747942  0.64921306  0.00067208     0.07400
H2784       H  0.07407876  0.61845062  0.07445016     0.02300
H2785       H  0.08311315  0.60254777  0.06449637     0.02800
H2786       H  0.06268379  0.60547708  0.06304080     0.06300
H2787       H  0.12624496  0.60076883  0.04471583     0.05300
H2788       H  0.11593733  0.61492226  0.03368828    -0.00500
H2789       H  0.10556402  0.60049900  0.04455897     0.01000
H2790       H  0.11253474  0.66207015  0.09182282     0.04600
H2791       H  0.12404133  0.65034349  0.10408840     0.06600
H2792       H  0.10347560  0.64788124  0.10401384     0.07500
C2793       C  0.27041397  0.64248642  0.09570901    -0.22200
C2794       C  0.28174371  0.63229260  0.10089337     0.09800
C2795       C  0.27754605  0.61953708  0.10999822     0.10200
C2796       C  0.26199151  0.61721563  0.11365753    -0.17100
C2797       C  0.25055452  0.62749609  0.10862792    -0.27500
C2798       C  0.25491180  0.64050566  0.09973223     0.18500
C2799       C  0.29804069  0.63589989  0.09756292     0.12500
C2800       C  0.28949853  0.60846113  0.11590792    -0.11900
H2801       H  0.25873719  0.60730062  0.12050245     0.12800
C2802       C  0.24393055  0.65312189  0.09508492    -0.22700
H2803       H  0.27380637  0.65245138  0.08898770     0.08400
C2804       C  0.30525734  0.63100613  0.08390292     0.04800
C2805       C  0.32066081  0.63508244  0.08121162    -0.19900
C2806       C  0.32892513  0.64403965  0.09183091    -0.12200
C2807       C  0.32172232  0.64860788  0.10571962     0.13500
C2808       C  0.30630071  0.64463932  0.10827245    -0.22600
C2809       C  0.29665585  0.62159225  0.07217967    -0.05700
H2810       H  0.32621464  0.63148243  0.07064751     0.15000
C2811       C  0.32997605  0.65705821  0.11842169    -0.15900
H2812       H  0.30070415  0.64821129  0.11883171     0.09300
H2813       H  0.24257282  0.65315256  0.08239293     0.07200
H2814       H  0.24865817  0.66443802  0.09871856     0.08400
H2815       H  0.23248880  0.65216641  0.10052504     0.07400
H2816       H  0.29783490  0.61467509  0.12332344     0.02300
H2817       H  0.29573814  0.60318160  0.10610227     0.02800
H2818       H  0.28425959  0.59905815  0.12281002     0.06300
H2819       H  0.30399596  0.61870266  0.06213448     0.05300
H2820       H  0.28653830  0.62815923  0.06797401    -0.00500
H2821       H  0.29266594  0.61066056  0.07746840     0.01000
H2822       H  0.32470848  0.66859637  0.12002143     0.04600
H2823       H  0.34243286  0.65850815  0.11631166     0.06600
H2824       H  0.32883898  0.65045849  0.12930407     0.07500
C2825       C  0.16939441  0.62974993  0.25570678    -0.22200
C2826       C  0.15900817  0.61979140  0.24846488     0.09800
C2827       C  0.14677944  0.61333996  0.25693117     0.10200
C2828       C  0.14499182  0.61731284  0.27246856    -0.17100
C2829       C  0.15510655  0.62766476  0.27968634    -0.27500
C2830       C  0.16765025  0.63376012  0.27124476     0.18500
C2831       C  0.16093170  0.61671442  0.23184869     0.12500
C2832       C  0.13562005  0.60233569  0.24953008    -0.11900
H2833       H  0.13551762  0.61246765  0.27897231     0.12800
C2834       C  0.17958864  0.64397185  0.27859041    -0.22700
H2835       H  0.17884794  0.63449254  0.24909330     0.08400
C2836       C  0.15417522  0.62641295  0.22075014     0.04800
C2837       C  0.15674826  0.62348592  0.20511350    -0.19900
C2838       C  0.16603559  0.61115017  0.20030355    -0.12200
C2839       C  0.17239532  0.60111976  0.21148019     0.13500
C2840       C  0.16988709  0.60415864  0.22714092    -0.22600
C2841       C  0.14447219  0.64000395  0.22544173    -0.05700
H2842       H  0.15186091  0.63118276  0.19660283     0.15000
C2843       C  0.18141759  0.58687506  0.20739239    -0.15900
H2844       H  0.17487899  0.59663383  0.23575294     0.09300
H2845       H  0.17447059  0.65520549  0.28175981     0.07200
H2846       H  0.18928780  0.64638697  0.27063123     0.08400
H2847       H  0.18437930  0.63827108  0.28896739     0.07400
H2848       H  0.14190421  0.59208762  0.24519377     0.02300
H2849       H  0.12970734  0.60807076  0.23977586     0.02800
H2850       H  0.12672141  0.59833771  0.25778109     0.06300
H2851       H  0.14005552  0.64641750  0.21531170     0.05300
H2852       H  0.15143201  0.64806533  0.23249538    -0.00500
H2853       H  0.13445819  0.63601103  0.23228217     0.01000
H2854       H  0.19337682  0.58799821  0.21172572     0.04600
H2855       H  0.18179352  0.58459890  0.19487933     0.06600
H2856       H  0.17598396  0.57667728  0.21287134     0.07500
C2857       C  0.61916076  0.93529662  0.56108130    -0.22200
C2858       C  0.60941589  0.94786674  0.56367988     0.09800
C2859       C  0.61130392  0.95695729  0.57695571     0.10200
C2860       C  0.62305806  0.95329095  0.58737636    -0.17100
C2861       C  0.63289521  0.94070770  0.58481418    -0.27500
C2862       C  0.63083563  0.93150188  0.57154714     0.18500
C2863       C  0.59680417  0.95072466  0.55267769     0.12500
C2864       C  0.60084854  0.97041828  0.58013160    -0.11900
H2865       H  0.62452739  0.96022187  0.59763682     0.12800
C2866       C  0.64023829  0.91718909  0.56876568    -0.22700
H2867       H  0.61738788  0.92824950  0.55094524     0.08400
C2868       C  0.59928194  0.95882229  0.53884490     0.04800
C2869       C  0.58718458  0.96020285  0.52826422    -0.19900
C2870       C  0.57277888  0.95354241  0.53122518    -0.12200
C2871       C  0.57012081  0.94605972  0.54543422     0.13500
C2872       C  0.58225386  0.94462040  0.55592659    -0.22600
C2873       C  0.61473530  0.96575166  0.53518473    -0.05700
H2874       H  0.58915875  0.96593828  0.51736502     0.15000
C2875       C  0.55462853  0.93973784  0.55004115    -0.15900
H2876       H  0.58039398  0.93859474  0.56669299     0.09300
H2877       H  0.65242787  0.92027128  0.56671177     0.07200
H2878       H  0.63615739  0.91076193  0.55850565     0.08400
H2879       H  0.63937688  0.90938141  0.57884443     0.07400
H2880       H  0.58878160  0.96636193  0.58116074     0.02300
H2881       H  0.60164432  0.97886568  0.57057840     0.02800
H2882       H  0.60397023  0.97638411  0.59098634     0.06300
H2883       H  0.61467927  0.97176638  0.52391142     0.05300
H2884       H  0.62360213  0.95656255  0.53475537    -0.00500
H2885       H  0.61789594  0.97423688  0.54419462     0.01000
H2886       H  0.55542499  0.92705974  0.55151898     0.04600
H2887       H  0.54544193  0.94230669  0.54159395     0.06600
H2888       H  0.55105998  0.94497130  0.56113166     0.07500
C2889       C  0.60951524  0.59284259  0.91830930    -0.22200
C2890       C  0.60908472  0.57987714  0.90875117     0.09800
C2891       C  0.62059723  0.57772375  0.89756626     0.10200
C2892       C  0.63215012  0.58885372  0.89591681    -0.17100
C2893       C  0.63246324  0.60208705  0.90521317    -0.27500
C2894       C  0.62121112  0.60388891  0.91687386     0.18500
C2895       C  0.59627418  0.56883004  0.91038507     0.12500
C2896       C  0.62059809  0.56373504  0.88731644    -0.11900
H2897       H  0.64077661  0.58738821  0.88704014     0.12800
C2898       C  0.62143107  0.61686490  0.92838245    -0.22700
H2899       H  0.60073431  0.59426428  0.92705243     0.08400
C2900       C  0.59673942  0.55679742  0.92125195     0.04800
C2901       C  0.58441170  0.54640769  0.92204915    -0.19900
C2902       C  0.57172843  0.54775621  0.91214055    -0.12200
C2903       C  0.57110725  0.56013452  0.90153904     0.13500
C2904       C  0.58350737  0.57041067  0.90070864    -0.22600
C2905       C  0.61035809  0.55478175  0.93176206    -0.05700
H2906       H  0.58485339  0.53694347  0.93017499     0.15000
C2907       C  0.55743296  0.56327006  0.89132818    -0.15900
H2908       H  0.58317978  0.57982821  0.89251715     0.09300
H2909       H  0.62132745  0.61201295  0.94019967     0.07200
H2910       H  0.61105683  0.62415843  0.92683327     0.08400
H2911       H  0.63179347  0.62420807  0.92751836     0.07400
H2912       H  0.60985308  0.56341314  0.88043051     0.02300
H2913       H  0.62133499  0.55314260  0.89443298     0.02800
H2914       H  0.63049556  0.56378870  0.87924128     0.06300
H2915       H  0.60892704  0.54468784  0.93948211     0.05300
H2916       H  0.61178370  0.56520222  0.93901627    -0.00500
H2917       H  0.62094040  0.55301565  0.92483895     0.01000
H2918       H  0.55338527  0.57525357  0.89322364     0.04600
H2919       H  0.54750442  0.55563619  0.89363951     0.06600
H2920       H  0.56085934  0.56198784  0.87909792     0.07500
C2921       C  0.93211516  0.58059113  0.55067214    -0.22200
C2922       C  0.94190073  0.56825317  0.55411693     0.09800
C2923       C  0.95053118  0.56839400  0.56781352     0.10200
C2924       C  0.94919003  0.58096614  0.57782924    -0.17100
C2925       C  0.93946795  0.59344434  0.57442524    -0.27500
C2926       C  0.93072893  0.59320962  0.56067578     0.18500
C2927       C  0.94293259  0.55527679  0.54317444     0.12500
C2928       C  0.96102524  0.55520506  0.57189238    -0.11900
H2929       H  0.95578951  0.58105860  0.58840182     0.12800
C2930       C  0.91942573  0.60576650  0.55675015    -0.22700
H2931       H  0.92546063  0.58025896  0.54013580     0.08400
C2932       C  0.93235385  0.54299843  0.54358690     0.04800
C2933       C  0.93358346  0.53114835  0.53270713    -0.19900
C2934       C  0.94522721  0.53122327  0.52146419    -0.12200
C2935       C  0.95600579  0.54350366  0.52128720     0.13500
C2936       C  0.95464571  0.55539459  0.53214164    -0.22600
C2937       C  0.91978781  0.54243328  0.55550628    -0.05700
H2938       H  0.92537754  0.52175152  0.53300123     0.15000
C2939       C  0.96865651  0.54451884  0.50947568    -0.15900
H2940       H  0.96270693  0.56492427  0.53199912     0.09300
H2941       H  0.91262941  0.60289866  0.54632224     0.07200
H2942       H  0.92559798  0.61665816  0.55433216     0.08400
H2943       H  0.91123547  0.60744224  0.56640123     0.07400
H2944       H  0.97000048  0.55389009  0.56290996     0.02300
H2945       H  0.95428148  0.54437500  0.57269829     0.02800
H2946       H  0.96686193  0.55709420  0.58309272     0.06300
H2947       H  0.91255248  0.53195903  0.55428384     0.05300
H2948       H  0.91223175  0.55267038  0.55431287    -0.00500
H2949       H  0.92492296  0.54235772  0.56719123     0.01000
H2950       H  0.97542630  0.55530612  0.51066567     0.04600
H2951       H  0.96365737  0.54433742  0.49772773     0.06600
H2952       H  0.97675150  0.53474373  0.51091619     0.07500
C2953       C  0.96971320  0.63788787  0.90818881    -0.22200
C2954       C  0.96891135  0.62851448  0.92126511     0.09800
C2955       C  0.95681323  0.61780143  0.92276987     0.10200
C2956       C  0.94598102  0.61638432  0.91089946    -0.17100
C2957       C  0.94695770  0.62545484  0.89755853    -0.27500
C2958       C  0.95873623  0.63670449  0.89641107     0.18500
C2959       C  0.98087188  0.63000871  0.93328251     0.12500
C2960       C  0.95554395  0.60766050  0.93677322    -0.11900
H2961       H  0.93694394  0.60783441  0.91185762     0.12800
C2962       C  0.95978570  0.64807624  0.88335072    -0.22700
H2963       H  0.97887590  0.64631607  0.90726020     0.08400
C2964       C  0.99497478  0.62206510  0.93215440     0.04800
C2965       C  0.00556922  0.62302983  0.94427929    -0.19900
C2966       C  0.00238836  0.63181172  0.95744654    -0.12200
C2967       C  0.98821949  0.63977317  0.95856706     0.13500
C2968       C  0.97771174  0.63888837  0.94635452    -0.22600
C2969       C  0.99872585  0.61243525  0.91824851    -0.05700
H2970       H  0.01641974  0.61692241  0.94348094     0.15000
C2971       C  0.98341846  0.64864756  0.97267902    -0.15900
H2972       H  0.96676442  0.64481340  0.94721300     0.09300
H2973       H  0.97052447  0.64603539  0.87675131     0.07200
H2974       H  0.96004721  0.65996222  0.88806510     0.08400
H2975       H  0.94986639  0.64752727  0.87540264     0.07400
H2976       H  0.95416662  0.61488635  0.94720942     0.02300
H2977       H  0.96609257  0.60054701  0.93793880     0.02800
H2978       H  0.94550207  0.59978414  0.93604688     0.06300
H2979       H  0.01019707  0.60689554  0.91926752     0.05300
H2980       H  0.99877870  0.61980003  0.90781262    -0.00500
H2981       H  0.98997476  0.60322284  0.91686876     0.01000
H2982       H  0.98172902  0.66095061  0.96963124     0.04600
H2983       H  0.99183643  0.64797667  0.98220008     0.06600
H2984       H  0.97238826  0.64393331  0.97708388     0.07500
C2985       C  0.80526419  0.62260036  0.84829437    -0.22200
C2986       C  0.79768168  0.61558756  0.86064649     0.09800
C2987       C  0.80570400  0.60520455  0.87019332     0.10200
C2988       C  0.82129847  0.60218977  0.86724572    -0.17100
C2989       C  0.82894899  0.60920996  0.85487379    -0.27500
C2990       C  0.82083324  0.61960458  0.84529469     0.18500
C2991       C  0.78146516  0.61978898  0.86364506     0.12500
C2992       C  0.79785250  0.59753771  0.88359733    -0.11900
H2993       H  0.82758091  0.59436098  0.87465331     0.12800
C2994       C  0.82863401  0.62818719  0.83240101    -0.22700
H2995       H  0.79899307  0.63066935  0.84113481     0.08400
C2996       C  0.77767507  0.63336934  0.87166756     0.04800
C2997       C  0.76216390  0.63718330  0.87385517    -0.19900
C2998       C  0.75032259  0.62773065  0.86822258    -0.12200
C2999       C  0.75417519  0.61414209  0.86004054     0.13500
C3000       C  0.76974342  0.61034420  0.85790180    -0.22600
C3001       C  0.79001653  0.64381489  0.87792600    -0.05700
H3002       H  0.75926329  0.64759361  0.88008941     0.15000
C3003       C  0.74208478  0.60397257  0.85289083    -0.15900
H3004       H  0.77283105  0.60003984  0.85157665     0.09300
H3005       H  0.82080654  0.63670164  0.82695313     0.07200
H3006       H  0.83231103  0.62004435  0.82331500     0.08400
H3007       H  0.83877238  0.63453129  0.83689383     0.07400
H3008       H  0.78802855  0.59052075  0.87942188     0.02300
H3009       H  0.79353250  0.60641808  0.89170181     0.02800
H3010       H  0.80580778  0.58982547  0.88996891     0.06300
H3011       H  0.78506507  0.65388616  0.88404801     0.05300
H3012       H  0.79726145  0.64819692  0.86836910    -0.00500
H3013       H  0.79735280  0.63735077  0.88614448     0.01000
H3014       H  0.74729382  0.59476310  0.84571678     0.04600
H3015       H  0.73443735  0.61093561  0.84539221     0.06600
H3016       H  0.73522804  0.59820513  0.86194089     0.07500
C3017       C  0.91663659  0.62549940  0.72154666    -0.22200
C3018       C  0.92748953  0.61483443  0.72685454     0.09800
C3019       C  0.93807361  0.60828012  0.71646884     0.10200
C3020       C  0.93782228  0.61292577  0.70100728    -0.17100
C3021       C  0.92719841  0.62392949  0.69572408    -0.27500
C3022       C  0.91617459  0.62998604  0.70608350     0.18500
C3023       C  0.92731850  0.61072514  0.74336531     0.12500
C3024       C  0.94981027  0.59667811  0.72176912    -0.11900
H3025       H  0.94618739  0.60818989  0.69306753     0.12800
C3026       C  0.90334138  0.64062790  0.70126835    -0.22700
H3027       H  0.90829360  0.63020848  0.72954001     0.08400
C3028       C  0.93272142  0.62107119  0.75464020     0.04800
C3029       C  0.93072557  0.61747601  0.77023601    -0.19900
C3030       C  0.92340337  0.60379290  0.77478886    -0.12200
C3031       C  0.91897438  0.59295433  0.76344658     0.13500
C3032       C  0.92077296  0.59668738  0.74786161    -0.22600
C3033       C  0.94038245  0.63599390  0.75019733    -0.05700
H3034       H  0.93425201  0.62573545  0.77888683     0.15000
C3035       C  0.91260760  0.57727054  0.76730167    -0.15900
H3036       H  0.91686955  0.58866410  0.73913983     0.09300
H3037       H  0.90487941  0.65201852  0.70686150     0.07200
H3038       H  0.89214934  0.63569562  0.70497442     0.08400
H3039       H  0.90257911  0.64227640  0.68868601     0.07400
H3040       H  0.94392401  0.58631380  0.72637456     0.02300
H3041       H  0.95709477  0.60180939  0.73091729     0.02800
H3042       H  0.95743215  0.59295153  0.71222001     0.06300
H3043       H  0.94421942  0.64259199  0.76044117     0.05300
H3044       H  0.93224736  0.64333107  0.74364083    -0.00500
H3045       H  0.95062524  0.63355914  0.74296885     0.01000
H3046       H  0.90058596  0.57636407  0.76309207     0.04600
H3047       H  0.91282001  0.57471932  0.77977326     0.06600
H3048       H  0.91967346  0.56829250  0.76157209     0.07500
C3049       C  0.62451182  0.92952222  0.92706330    -0.22200
C3050       C  0.61584566  0.94259400  0.92341525     0.09800
C3051       C  0.60766713  0.94321543  0.90947105     0.10200
C3052       C  0.60841712  0.93067018  0.89936691    -0.17100
C3053       C  0.61731874  0.91756339  0.90277741    -0.27500
C3054       C  0.62542286  0.91697062  0.91693306     0.18500
C3055       C  0.61601204  0.95573371  0.93417938     0.12500
C3056       C  0.59833579  0.95719833  0.90519380    -0.11900
H3057       H  0.60216378  0.93121340  0.88860314     0.12800
C3058       C  0.63562056  0.90363557  0.92128099    -0.22700
H3059       H  0.63079878  0.92928465  0.93782740     0.08400
C3060       C  0.60592041  0.95642589  0.94682757     0.04800
C3061       C  0.60704416  0.96881020  0.95711696    -0.19900
C3062       C  0.61796279  0.98054824  0.95493179    -0.12200
C3063       C  0.62746724  0.98024372  0.94168079     0.13500
C3064       C  0.62660818  0.96761062  0.93169866    -0.22600
C3065       C  0.59406427  0.94405276  0.94946512    -0.05700
H3066       H  0.59958326  0.96915361  0.96709788     0.15000
C3067       C  0.63810646  0.99323444  0.93721668    -0.15900
H3068       H  0.63407640  0.96714038  0.92171909     0.09300
H3069       H  0.62852793  0.89330547  0.92363726     0.07200
H3070       H  0.64227196  0.90604785  0.93191603     0.08400
H3071       H  0.64400777  0.90127241  0.91195037     0.07400
H3072       H  0.60593591  0.96745431  0.90452142     0.02300
H3073       H  0.58932030  0.95923919  0.91399784     0.02800
H3074       H  0.59259509  0.95577564  0.89387528     0.06300
H3075       H  0.58700522  0.94640630  0.95984503     0.05300
H3076       H  0.59983954  0.93275903  0.95104005    -0.00500
H3077       H  0.58622965  0.94338021  0.93940834     0.01000
H3078       H  0.65022457  0.98925474  0.93786254     0.04600
H3079       H  0.63673542  0.00366537  0.94438681     0.06600
H3080       H  0.63559673  0.99682316  0.92521676     0.07500
C3081       C  0.65366671  0.89420635  0.75931356    -0.22200
C3082       C  0.64377406  0.90445366  0.75180372     0.09800
C3083       C  0.63022346  0.90947143  0.75915742     0.10200
C3084       C  0.62676427  0.90390469  0.77390806    -0.17100
C3085       C  0.63654013  0.89341041  0.78134995    -0.27500
C3086       C  0.65039626  0.88881185  0.77411838     0.18500
C3087       C  0.64777433  0.90937641  0.73605468     0.12500
C3088       C  0.61949692  0.92068830  0.75144664    -0.11900
H3089       H  0.61626445  0.90754971  0.77956327     0.12800
C3090       C  0.66233973  0.87880694  0.78176890    -0.22700
H3091       H  0.66414745  0.89053885  0.75362180     0.08400
C3092       C  0.65937022  0.92038766  0.73327670     0.04800
C3093       C  0.66373350  0.92357023  0.71807993    -0.19900
C3094       C  0.65660211  0.91613484  0.70565293    -0.12200
C3095       C  0.64474962  0.90530579  0.70848261     0.13500
C3096       C  0.64052796  0.90204737  0.72369587    -0.22600
C3097       C  0.66709178  0.92875088  0.74633933    -0.05700
H3098       H  0.67278936  0.93186686  0.71586851     0.15000
C3099       C  0.63704086  0.89654810  0.69565878    -0.15900
H3100       H  0.63174116  0.89349241  0.72602021     0.09300
H3101       H  0.67362256  0.88480728  0.78156544     0.07200
H3102       H  0.66342094  0.86777748  0.77540328     0.08400
H3103       H  0.65979459  0.87626198  0.79396221     0.07400
H3104       H  0.61501894  0.91564495  0.74061061     0.02300
H3105       H  0.62575875  0.93151458  0.74878615     0.02800
H3106       H  0.60952399  0.92357758  0.75888839     0.06300
H3107       H  0.67570258  0.93721071  0.74212558     0.05300
H3108       H  0.67310841  0.92040064  0.75390015    -0.00500
H3109       H  0.65833255  0.93506621  0.75316338     0.01000
H3110       H  0.62895463  0.88770980  0.70013397     0.04600
H3111       H  0.64582320  0.89057069  0.68856963     0.06600
H3112       H  0.63027436  0.90451986  0.68837026     0.07500
C3113       C  0.65142572  0.74508661  0.88447386    -0.22200
C3114       C  0.65687720  0.75247146  0.87125213     0.09800
C3115       C  0.66714136  0.74472211  0.86138289     0.10200
C3116       C  0.67127016  0.72944988  0.86467528    -0.17100
C3117       C  0.66562195  0.72184594  0.87778985    -0.27500
C3118       C  0.65594716  0.73000488  0.88810512     0.18500
C3119       C  0.65212109  0.76854972  0.86827560     0.12500
C3120       C  0.67380090  0.75261482  0.84745704    -0.11900
H3121       H  0.67879522  0.72334977  0.85682953     0.12800
C3122       C  0.65080074  0.72365633  0.90340084    -0.22700
H3123       H  0.64388406  0.75130213  0.89223031     0.08400
C3124       C  0.63946810  0.77201716  0.85874948     0.04800
C3125       C  0.63561866  0.78747689  0.85605223    -0.19900
C3126       C  0.64397609  0.79950743  0.86287794    -0.12200
C3127       C  0.65673389  0.79597672  0.87238821     0.13500
C3128       C  0.66052369  0.78050440  0.87507002    -0.22600
C3129       C  0.62990699  0.75940755  0.85166001    -0.05700
H3130       H  0.62585603  0.79020075  0.84878872     0.15000
C3131       C  0.66703423  0.80807321  0.87936892    -0.15900
H3132       H  0.67030278  0.77772657  0.88229962     0.09300
H3133       H  0.63814667  0.72193574  0.90330108     0.07200
H3134       H  0.65374186  0.73199073  0.91263181     0.08400
H3135       H  0.65650202  0.71270820  0.90651368     0.07400
H3136       H  0.68036964  0.76296037  0.85109107     0.02300
H3137       H  0.66445092  0.75619971  0.83955221     0.02800
H3138       H  0.68172180  0.74493007  0.84101486     0.06300
H3139       H  0.62034858  0.76413040  0.84461916     0.05300
H3140       H  0.62485636  0.75213274  0.86086836    -0.00500
H3141       H  0.63715946  0.75210712  0.84411402     0.01000
H3142       H  0.66631513  0.80744582  0.89209839     0.04600
H3143       H  0.66417230  0.81992884  0.87570095     0.06600
H3144       H  0.67911489  0.80590598  0.87582353     0.07500
C3145       C  0.97417988  0.92511058  0.57695554    -0.22200
C3146       C  0.97377327  0.93646587  0.58836266     0.09800
C3147       C  0.96114725  0.93725037  0.59849676     0.10200
C3148       C  0.94929809  0.92635841  0.59719845    -0.17100
C3149       C  0.94971685  0.91481379  0.58588422    -0.27500
C3150       C  0.96218736  0.91441514  0.57538291     0.18500
C3151       C  0.98637638  0.94786671  0.58904491     0.12500
C3152       C  0.96016868  0.94962726  0.61060035    -0.11900
H3153       H  0.93972569  0.92675748  0.60517472     0.12800
C3154       C  0.96295904  0.90350081  0.56192556    -0.22700
H3155       H  0.98376697  0.92483445  0.56897994     0.08400
C3156       C  0.99936823  0.94559614  0.59847258     0.04800
C3157       C  0.01082838  0.95696545  0.59896365    -0.19900
C3158       C  0.00962295  0.97043681  0.59011043    -0.12200
C3159       C  0.99649370  0.97272324  0.58072715     0.13500
C3160       C  0.98512648  0.96128547  0.58020669    -0.22600
C3161       C  0.00117763  0.93112721  0.60785963    -0.05700
H3162       H  0.02090349  0.95523179  0.60610494     0.15000
C3163       C  0.99366137  0.98726172  0.57164427    -0.15900
H3164       H  0.97502469  0.96298092  0.57308677     0.09300
H3165       H  0.97292464  0.89563320  0.56334529     0.07200
H3166       H  0.96449966  0.91020164  0.55115407     0.08400
H3167       H  0.95241059  0.89654543  0.56042074     0.07400
H3168       H  0.96019107  0.96113902  0.60503649     0.02300
H3169       H  0.97015662  0.94879456  0.61849778     0.02800
H3170       H  0.94950520  0.94859782  0.61755885     0.06300
H3171       H  0.01206789  0.93116122  0.61453679     0.05300
H3172       H  0.00127714  0.92094969  0.60013450    -0.00500
H3173       H  0.99148114  0.93001958  0.61608110     0.01000
H3174       H  0.99342429  0.98451220  0.55918085     0.04600
H3175       H  0.00236066  0.99634117  0.57365472     0.06600
H3176       H  0.98236085  0.99220739  0.57497366     0.07500
C3177       C  0.92372009  0.77035010  0.58532361    -0.22200
C3178       C  0.91900158  0.76350686  0.59913268     0.09800
C3179       C  0.91047087  0.77218196  0.60987053     0.10200
C3180       C  0.90671563  0.78752316  0.60646397    -0.17100
C3181       C  0.91141269  0.79441365  0.59263724    -0.27500
C3182       C  0.91992175  0.78566738  0.58184813     0.18500
C3183       C  0.92260828  0.74706169  0.60187585     0.12500
C3184       C  0.90521332  0.76520217  0.62483538    -0.11900
H3185       H  0.90023676  0.79425414  0.61472570     0.12800
C3186       C  0.92464339  0.79181247  0.56633887    -0.22700
H3187       H  0.93016045  0.76357597  0.57706091     0.08400
C3188       C  0.91412948  0.73524640  0.59465026     0.04800
C3189       C  0.91759742  0.71981632  0.59797240    -0.19900
C3190       C  0.92924897  0.71595439  0.60845361    -0.12200
C3191       C  0.93806736  0.72782348  0.61531984     0.13500
C3192       C  0.93453827  0.74324242  0.61200959    -0.22600
C3193       C  0.90115518  0.73893978  0.58377441    -0.05700
H3194       H  0.91087174  0.71071703  0.59271277     0.15000
C3195       C  0.95154700  0.72472123  0.62577423    -0.15900
H3196       H  0.94117109  0.75237481  0.61733969     0.09300
H3197       H  0.91992226  0.78424557  0.55718968     0.07200
H3198       H  0.93738390  0.79187364  0.56546644     0.08400
H3199       H  0.92037967  0.80360610  0.56406517     0.07400
H3200       H  0.91533474  0.76158740  0.63172427     0.02300
H3201       H  0.89785153  0.75501265  0.62251520     0.02800
H3202       H  0.89845426  0.77351383  0.63180416     0.06300
H3203       H  0.89547994  0.72834389  0.57941369     0.05300
H3204       H  0.90561705  0.74545336  0.57374048    -0.00500
H3205       H  0.89235801  0.74599222  0.58978175     0.01000
H3206       H  0.96195689  0.73045450  0.62107538     0.04600
H3207       H  0.95429115  0.71232451  0.62691531     0.06600
H3208       H  0.94912769  0.72946120  0.63737845     0.07500
C3209       C  0.81007185  0.90424828  0.62004363    -0.22200
C3210       C  0.79761855  0.89819516  0.61181924     0.09800
C3211       C  0.80022073  0.88701485  0.60036413     0.10200
C3212       C  0.81531549  0.88216371  0.59731983    -0.17100
C3213       C  0.82787097  0.88828397  0.60543965    -0.27500
C3214       C  0.82516590  0.89927416  0.61719929     0.18500
C3215       C  0.78187138  0.90337071  0.61572518     0.12500
C3216       C  0.78705241  0.88025585  0.59136008    -0.11900
H3217       H  0.81735670  0.87370839  0.58838123     0.12800
C3218       C  0.83765827  0.90547315  0.62751388    -0.22700
H3219       H  0.80794022  0.91264678  0.62902295     0.08400
C3220       C  0.77335524  0.89618488  0.62749810     0.04800
C3221       C  0.75836463  0.90126339  0.63062642    -0.19900
C3222       C  0.75167963  0.91342630  0.62230402    -0.12200
C3223       C  0.76051072  0.92099030  0.61083818     0.13500
C3224       C  0.77541062  0.91567179  0.60755671    -0.22600
C3225       C  0.78004593  0.88304486  0.63662712    -0.05700
H3226       H  0.75170595  0.89546465  0.63943089     0.15000
C3227       C  0.75502383  0.93506087  0.60228628    -0.15900
H3228       H  0.78215086  0.92131458  0.59870083     0.09300
H3229       H  0.83443502  0.90349121  0.63971225     0.07200
H3230       H  0.83896595  0.91804861  0.62559112     0.08400
H3231       H  0.84892684  0.89983364  0.62577773     0.07400
H3232       H  0.78093257  0.88954667  0.58507321     0.02300
H3233       H  0.77888343  0.87446780  0.59929010     0.02800
H3234       H  0.79107575  0.87163073  0.58283279     0.06300
H3235       H  0.77181801  0.87866159  0.64536438     0.05300
H3236       H  0.79058277  0.88695018  0.64269182    -0.00500
H3237       H  0.78303631  0.87339105  0.62881499     0.01000
H3238       H  0.76362522  0.94443635  0.60355565     0.04600
H3239       H  0.74400135  0.93965845  0.60665766     0.06600
H3240       H  0.75376491  0.93229870  0.58988722     0.07500
C3241       C  0.45715424  0.96215000  0.56065231    -0.22200
C3242       C  0.47144680  0.95475416  0.56126875     0.09800
C3243       C  0.47492738  0.94490605  0.57368215     0.10200
C3244       C  0.46372795  0.94212583  0.58491334    -0.17100
C3245       C  0.44914166  0.94900182  0.58404055    -0.27500
C3246       C  0.44600714  0.95961415  0.57204906     0.18500
C3247       C  0.48239167  0.95660972  0.54841442     0.12500
C3248       C  0.49031716  0.93698825  0.57481663    -0.11900
H3249       H  0.46620262  0.93410027  0.59413582     0.12800
C3250       C  0.43134707  0.96883491  0.57112300    -0.22700
H3251       H  0.45468181  0.96991508  0.55120243     0.08400
C3252       C  0.48153517  0.94697556  0.53541289     0.04800
C3253       C  0.49345010  0.94730645  0.52458640    -0.19900
C3254       C  0.50625530  0.95696908  0.52651893    -0.12200
C3255       C  0.50688626  0.96697223  0.53940509     0.13500
C3256       C  0.49476529  0.96679926  0.55006103    -0.22600
C3257       C  0.46828423  0.93599732  0.53324965    -0.05700
H3258       H  0.49293191  0.93972558  0.51469342     0.15000
C3259       C  0.52046423  0.97717719  0.54301972    -0.15900
H3260       H  0.49538383  0.97404241  0.56020000     0.09300
H3261       H  0.42486651  0.96553835  0.56062983     0.07200
H3262       H  0.43420023  0.98128889  0.57047252     0.08400
H3263       H  0.42382042  0.96732607  0.58127146     0.07400
H3264       H  0.49960994  0.94572764  0.57555547     0.02300
H3265       H  0.49221613  0.92967996  0.56451708     0.02800
H3266       H  0.49107008  0.92951731  0.58515718     0.06300
H3267       H  0.46945810  0.92919636  0.52249986     0.05300
H3268       H  0.45733896  0.94255323  0.53263539    -0.00500
H3269       H  0.46775531  0.92782413  0.54305704     0.01000
H3270       H  0.51679726  0.98942477  0.54274064     0.04600
H3271       H  0.53028470  0.97571013  0.53509496     0.06600
H3272       H  0.52478988  0.97445589  0.55472508     0.07500
C3273       C  0.13788477  0.56349050  0.57220213    -0.22200
C3274       C  0.14671359  0.56420106  0.55877455     0.09800
C3275       C  0.15678238  0.57669205  0.55637346     0.10200
C3276       C  0.15815231  0.58803558  0.56775519    -0.17100
C3277       C  0.14945451  0.58733157  0.58135128    -0.27500
C3278       C  0.13883488  0.57507979  0.58339592     0.18500
C3279       C  0.14461311  0.55221420  0.54692689     0.12500
C3280       C  0.16596404  0.57809201  0.54174134    -0.11900
H3281       H  0.16618441  0.59743804  0.56608380     0.12800
C3282       C  0.12769821  0.57419581  0.59665854    -0.22700
H3283       H  0.12984756  0.55405560  0.57372960     0.08400
C3284       C  0.15414654  0.53911659  0.54628441     0.04800
C3285       C  0.15218586  0.52853060  0.53427239    -0.19900
C3286       C  0.14083340  0.53069821  0.52296487    -0.12200
C3287       C  0.13129184  0.54393542  0.52367715     0.13500
C3288       C  0.13320995  0.55439124  0.53579429    -0.22600
C3289       C  0.16628045  0.53628917  0.55832228    -0.05700
H3290       H  0.15944812  0.51838906  0.53380896     0.15000
C3291       C  0.11952965  0.54796875  0.51161277    -0.15900
H3292       H  0.12603893  0.56460205  0.53632511     0.09300
H3293       H  0.13045737  0.56403949  0.60391039     0.07200
H3294       H  0.11581846  0.57289578  0.59213944     0.08400
H3295       H  0.12764782  0.58465072  0.60391256     0.07400
H3296       H  0.15804900  0.57871995  0.53174354     0.02300
H3297       H  0.17360390  0.56794623  0.54039305     0.02800
H3298       H  0.17324737  0.58860341  0.54169686     0.06300
H3299       H  0.17269208  0.52544283  0.55613650     0.05300
H3300       H  0.16079214  0.53541556  0.56981563    -0.00500
H3301       H  0.17466905  0.54592172  0.55841606     0.01000
H3302       H  0.10786091  0.54789506  0.51679999     0.04600
H3303       H  0.11962902  0.54008121  0.50170206     0.06600
H3304       H  0.12194192  0.55967456  0.50705062     0.07500
C3305       C  0.47202226  0.59224819  0.89072783    -0.22200
C3306       C  0.47125143  0.58304032  0.90394619     0.09800
C3307       C  0.45958452  0.58568879  0.91491886     0.10200
C3308       C  0.44900209  0.59761897  0.91244339    -0.17100
C3309       C  0.44982397  0.60691540  0.89926741    -0.27500
C3310       C  0.46130865  0.60403948  0.88813135     0.18500
C3311       C  0.48278814  0.57068019  0.90603507     0.12500
C3312       C  0.45807091  0.57572831  0.92903523    -0.11900
H3313       H  0.44001892  0.59971424  0.92083228     0.12800
C3314       C  0.46187107  0.61279721  0.87317916    -0.22700
H3315       H  0.48098906  0.59008180  0.88234165     0.08400
C3316       C  0.48274942  0.55733271  0.89677889     0.04800
C3317       C  0.49404308  0.54605740  0.89914634    -0.19900
C3318       C  0.50525910  0.54771952  0.91065155    -0.12200
C3319       C  0.50524351  0.56110151  0.91994815     0.13500
C3320       C  0.49404816  0.57246125  0.91742302    -0.22600
C3321       C  0.47068732  0.55484741  0.88457796    -0.05700
H3322       H  0.49405816  0.53580861  0.89202656     0.15000
C3323       C  0.51727234  0.56378684  0.93213546    -0.15900
H3324       H  0.49409067  0.58286058  0.92432046     0.09300
H3325       H  0.47089283  0.60822493  0.86537441     0.07200
H3326       H  0.46452719  0.62508766  0.87533833     0.08400
H3327       H  0.45063526  0.61182382  0.86718288     0.07400
H3328       H  0.46847794  0.57684697  0.93632532     0.02300
H3329       H  0.45662927  0.56350284  0.92557346     0.02800
H3330       H  0.44797276  0.57906862  0.93611117     0.06300
H3331       H  0.47205432  0.54351776  0.87880718     0.05300
H3332       H  0.47156089  0.56391336  0.87563383    -0.00500
H3333       H  0.45906517  0.55522596  0.88985764     0.01000
H3334       H  0.51594627  0.57524237  0.93766467     0.04600
H3335       H  0.52892580  0.56326663  0.92692626     0.06600
H3336       H  0.51624406  0.55494490  0.94129037     0.07500
C3337       C  0.11943575  0.63360127  0.92832849    -0.22200
C3338       C  0.10581852  0.62513563  0.92684901     0.09800
C3339       C  0.10384227  0.61513193  0.91424404     0.10200
C3340       C  0.11568743  0.61368335  0.90341612    -0.17100
C3341       C  0.12944673  0.62201595  0.90491246    -0.27500
C3342       C  0.13122472  0.63237363  0.91739436     0.18500
C3343       C  0.09365046  0.62700241  0.93854383     0.12500
C3344       C  0.08933183  0.60582477  0.91237516    -0.11900
H3345       H  0.11430688  0.60579180  0.89385818     0.12800
C3346       C  0.14493411  0.64284938  0.91926385    -0.22700
H3347       H  0.12073980  0.64144594  0.93794329     0.08400
C3348       C  0.09413224  0.61886733  0.95255574     0.04800
C3349       C  0.08188331  0.62035173  0.96292688    -0.19900
C3350       C  0.06921469  0.62980334  0.95958034    -0.12200
C3351       C  0.06874815  0.63794035  0.94546856     0.13500
C3352       C  0.08111716  0.63657038  0.93522446    -0.22600
C3353       C  0.10746911  0.60849723  0.95643815    -0.05700
H3354       H  0.08221317  0.61415141  0.97374641     0.15000
C3355       C  0.05517811  0.64750826  0.94040070    -0.15900
H3356       H  0.08078787  0.64265638  0.92433702     0.09300
H3357       H  0.15130598  0.63968774  0.92986698     0.07200
H3358       H  0.14092719  0.65495063  0.92031867     0.08400
H3359       H  0.15293749  0.64253960  0.90939115     0.07400
H3360       H  0.07929940  0.61364412  0.91121164     0.02300
H3361       H  0.08766465  0.59831602  0.92257704     0.02800
H3362       H  0.08977276  0.59837748  0.90200402     0.06300
H3363       H  0.10595099  0.60287403  0.96780998     0.05300
H3364       H  0.11826732  0.61531415  0.95678308    -0.00500
H3365       H  0.10854795  0.59933773  0.94759730     0.01000
H3366       H  0.05878343  0.65970940  0.93910754     0.04600
H3367       H  0.04530555  0.64701049  0.94840938     0.06600
H3368       H  0.05098616  0.64324156  0.92911635     0.07500
C3369       C  0.27467891  0.63255092  0.87265305    -0.22200
C3370       C  0.28142556  0.62401311  0.88451063     0.09800
C3371       C  0.27291658  0.61242142  0.89201035     0.10200
C3372       C  0.25779143  0.60942128  0.88723529    -0.17100
C3373       C  0.25112688  0.61765913  0.87503836    -0.27500
C3374       C  0.25960564  0.62956005  0.86779940     0.18500
C3375       C  0.29758990  0.62729890  0.88851722     0.12500
C3376       C  0.27986360  0.60318223  0.90491048    -0.11900
H3377       H  0.25119556  0.60047064  0.89290328     0.12800
C3378       C  0.25273526  0.63958166  0.85541779    -0.22700
H3379       H  0.28132854  0.64154767  0.86711381     0.08400
C3380       C  0.30975207  0.62091925  0.87990900     0.04800
C3381       C  0.32488150  0.62538916  0.88316651    -0.19900
C3382       C  0.32807367  0.63618915  0.89473735    -0.12200
C3383       C  0.31590532  0.64206774  0.90381293     0.13500
C3384       C  0.30075599  0.63762648  0.90047423    -0.22600
C3385       C  0.30671440  0.60958895  0.86714518    -0.05700
H3386       H  0.33423182  0.62082240  0.87629479     0.15000
C3387       C  0.31845911  0.65268431  0.91727938    -0.15900
H3388       H  0.29133292  0.64233402  0.90715566     0.09300
H3389       H  0.25060009  0.63273960  0.84489335     0.07200
H3390       H  0.26057572  0.64914973  0.85216812     0.08400
H3391       H  0.24180568  0.64474186  0.85954815     0.07400
H3392       H  0.28316870  0.61097620  0.91447252     0.02300
H3393       H  0.29024612  0.59703014  0.90072810     0.02800
H3394       H  0.27166203  0.59449968  0.90947425     0.06300
H3395       H  0.31754432  0.60563998  0.86163703     0.05300
H3396       H  0.29945392  0.61503281  0.85816253    -0.00500
H3397       H  0.30066448  0.59933918  0.87180826     0.01000
H3398       H  0.31269659  0.66388135  0.91508154     0.04600
H3399       H  0.33077766  0.65486767  0.91966887     0.06600
H3400       H  0.31343439  0.64743889  0.92778986     0.07500
C3401       C  0.17152881  0.60770564  0.72585041    -0.22200
C3402       C  0.16181584  0.61697740  0.73476064     0.09800
C3403       C  0.15234722  0.62799245  0.72755816     0.10200
C3404       C  0.15318522  0.62985633  0.71157044    -0.17100
C3405       C  0.16327784  0.62096266  0.70262296    -0.27500
C3406       C  0.17248484  0.60959344  0.70984860     0.18500
C3407       C  0.16300218  0.61613305  0.75169644     0.12500
C3408       C  0.14155481  0.63792358  0.73679005    -0.11900
H3409       H  0.14606411  0.63847128  0.70602189     0.12800
C3410       C  0.18407466  0.59987002  0.70136209    -0.22700
H3411       H  0.17889324  0.59936820  0.73151381     0.08400
C3412       C  0.15442735  0.60549402  0.76044665     0.04800
C3413       C  0.15637298  0.60508901  0.77648586    -0.19900
C3414       C  0.16681042  0.61499784  0.78383565    -0.12200
C3415       C  0.17498984  0.62601588  0.77504009     0.13500
C3416       C  0.17309023  0.62629711  0.75906321    -0.22600
C3417       C  0.14342678  0.59450283  0.75281763    -0.05700
H3418       H  0.15008674  0.59670690  0.78326247     0.15000
C3419       C  0.18546197  0.63794831  0.78206193    -0.15900
H3420       H  0.17946552  0.63460848  0.75226697     0.09300
H3421       H  0.18092119  0.58752496  0.70247078     0.07200
H3422       H  0.19564636  0.60162690  0.70647962     0.08400
H3423       H  0.18499180  0.60269754  0.68900559     0.07400
H3424       H  0.14818315  0.64496671  0.74512766     0.02300
H3425       H  0.13330047  0.63053238  0.74314899     0.02800
H3426       H  0.13486762  0.64586917  0.72933926     0.06300
H3427       H  0.13762471  0.58693274  0.76132680     0.05300
H3428       H  0.14976015  0.58708798  0.74456946    -0.00500
H3429       H  0.13445233  0.60106327  0.74653121     0.01000
H3430       H  0.19742658  0.63604506  0.77802295     0.04600
H3431       H  0.18537934  0.63786737  0.79478476     0.06600
H3432       H  0.18168389  0.64960768  0.77840475     0.07500
C3433       C  0.12251803  0.93441630  0.57968332    -0.22200
C3434       C  0.11110877  0.93212971  0.59078914     0.09800
C3435       C  0.11096931  0.91845247  0.59950804     0.10200
C3436       C  0.12254206  0.90743298  0.59712636    -0.17100
C3437       C  0.13413136  0.90971747  0.58608111    -0.27500
C3438       C  0.13384185  0.92326262  0.57694034     0.18500
C3439       C  0.09894662  0.94390634  0.59239264     0.12500
C3440       C  0.09866945  0.91557400  0.61135895    -0.11900
H3441       H  0.12268248  0.89709796  0.60411692     0.12800
C3442       C  0.14464690  0.92610350  0.56367295    -0.22700
H3443       H  0.12229351  0.94481423  0.57276633     0.08400
C3444       C  0.10092870  0.95700372  0.60177044     0.04800
C3445       C  0.08939908  0.96832023  0.60208202    -0.19900
C3446       C  0.07605437  0.96681732  0.59311850    -0.12200
C3447       C  0.07382280  0.95333906  0.58423305     0.13500
C3448       C  0.08542006  0.94214827  0.58384585    -0.22600
C3449       C  0.11526980  0.95908098  0.61125570    -0.05700
H3450       H  0.09099465  0.97858492  0.60899797     0.15000
C3451       C  0.05923423  0.95009837  0.57541389    -0.15900
H3452       H  0.08390095  0.93193271  0.57683236     0.09300
H3453       H  0.15224613  0.93602281  0.56636372     0.07200
H3454       H  0.13786753  0.92887094  0.55320592     0.08400
H3455       H  0.15179039  0.91598978  0.56072933     0.07400
H3456       H  0.08719965  0.91548082  0.60574969     0.02300
H3457       H  0.09894070  0.92480595  0.62018226     0.02800
H3458       H  0.10030018  0.90433874  0.61724860     0.06300
H3459       H  0.11495715  0.96994888  0.61798390     0.05300
H3460       H  0.12549928  0.95942776  0.60362314    -0.00500
H3461       H  0.11647043  0.94933558  0.61943411     0.01000
H3462       H  0.06184222  0.94944287  0.56293618     0.04600
H3463       H  0.05016242  0.95885833  0.57723051     0.06600
H3464       H  0.05439564  0.93888125  0.57920426     0.07500
C3465       C  0.27910646  0.90222960  0.58430139    -0.22200
C3466       C  0.28681364  0.89532628  0.59664799     0.09800
C3467       C  0.27983738  0.88309456  0.60470996     0.10200
C3468       C  0.26517968  0.87808325  0.60029132    -0.17100
C3469       C  0.25734915  0.88499282  0.58797117    -0.27500
C3470       C  0.26452041  0.89707997  0.57968831     0.18500
C3471       C  0.30244042  0.90063886  0.60069564     0.12500
C3472       C  0.28792977  0.87525589  0.61788679    -0.11900
H3473       H  0.25970125  0.86884710  0.60664889     0.12800
C3474       C  0.25755535  0.90435432  0.56557465    -0.22700
H3475       H  0.28466802  0.91147363  0.57801688     0.08400
C3476       C  0.31544174  0.89547598  0.59250027     0.04800
C3477       C  0.33014736  0.89971205  0.59757732    -0.19900
C3478       C  0.33210796  0.90887489  0.61072543    -0.12200
C3479       C  0.31901116  0.91458647  0.61854052     0.13500
C3480       C  0.30430672  0.91034040  0.61341644    -0.22600
C3481       C  0.31378190  0.88522874  0.57862503    -0.05700
H3482       H  0.34018724  0.89553583  0.59147506     0.15000
C3483       C  0.32038238  0.92555189  0.63190240    -0.15900
H3484       H  0.29419304  0.91440043  0.61947825     0.09300
H3485       H  0.26574663  0.90335127  0.55582605     0.07200
H3486       H  0.25529899  0.91674237  0.56779370     0.08400
H3487       H  0.24670753  0.89880591  0.56189143     0.07400
H3488       H  0.29021371  0.88369658  0.62719217     0.02300
H3489       H  0.29900539  0.87034173  0.61384443     0.02800
H3490       H  0.28092669  0.86574440  0.62278600     0.06300
H3491       H  0.32513182  0.88206872  0.57368528     0.05300
H3492       H  0.30707732  0.89126952  0.56959125    -0.00500
H3493       H  0.30772151  0.87445262  0.58188560     0.01000
H3494       H  0.30894967  0.92980487  0.63570854     0.04600
H3495       H  0.32739607  0.93568839  0.62850851     0.06600
H3496       H  0.32576129  0.91972790  0.64186887     0.07500
C3497       C  0.18489579  0.76565429  0.60979986    -0.22200
C3498       C  0.17330353  0.75763807  0.60201437     0.09800
C3499       C  0.16333642  0.76569355  0.59205502     0.10200
C3500       C  0.16548288  0.78158623  0.58977936    -0.17100
C3501       C  0.17724952  0.78964427  0.59739853    -0.27500
C3502       C  0.18680793  0.78159608  0.60791402     0.18500
C3503       C  0.17130487  0.74097433  0.60522623     0.12500
C3504       C  0.15043662  0.75750750  0.58388718    -0.11900
H3505       H  0.15806372  0.78771506  0.58184854     0.12800
C3506       C  0.19855968  0.78941442  0.61800330    -0.22700
H3507       H  0.19223803  0.75947336  0.61777512     0.08400
C3508       C  0.17896822  0.72957743  0.59657597     0.04800
C3509       C  0.17701486  0.71397045  0.60046153    -0.19900
C3510       C  0.16765189  0.70951652  0.61287363    -0.12200
C3511       C  0.15958964  0.72101486  0.62120680     0.13500
C3512       C  0.16175327  0.73657917  0.61741589    -0.22600
C3513       C  0.18937138  0.73392717  0.58342721    -0.05700
H3514       H  0.18313574  0.70521958  0.59401638     0.15000
C3515       C  0.14810825  0.71742941  0.63369995    -0.15900
H3516       H  0.15574658  0.74539275  0.62389901     0.09300
H3517       H  0.21027586  0.78549713  0.61476623     0.07200
H3518       H  0.19640893  0.78627752  0.63019743     0.08400
H3519       H  0.19809372  0.80212943  0.61743021     0.07400
H3520       H  0.14249480  0.75233889  0.59245192     0.02300
H3521       H  0.15515989  0.74824880  0.57646990     0.02800
H3522       H  0.14370364  0.76549158  0.57651950     0.06300
H3523       H  0.19452717  0.72362449  0.57788518     0.05300
H3524       H  0.19885956  0.74134386  0.58769212    -0.00500
H3525       H  0.18274855  0.74031859  0.57457993     0.01000
H3526       H  0.15241390  0.72188120  0.64486422     0.04600
H3527       H  0.14558613  0.70500078  0.63486488     0.06600
H3528       H  0.13700378  0.72315183  0.63100855     0.07500
C3529       C  0.46623091  0.93806923  0.92472878    -0.22200
C3530       C  0.45608125  0.95060876  0.92481429     0.09800
C3531       C  0.44467735  0.95177561  0.91333661     0.10200
C3532       C  0.44355754  0.94022708  0.90209514    -0.17100
C3533       C  0.45344198  0.92743851  0.90220875    -0.27500
C3534       C  0.46505178  0.92643110  0.91356966     0.18500
C3535       C  0.45743260  0.96225474  0.93720282     0.12500
C3536       C  0.43353937  0.96506197  0.91313434    -0.11900
H3537       H  0.43473555  0.94103293  0.89332444     0.12800
C3538       C  0.47655819  0.91345351  0.91367644    -0.22700
H3539       H  0.47506086  0.93737563  0.93350194     0.08400
C3540       C  0.45140260  0.95948854  0.95202362     0.04800
C3541       C  0.45278612  0.97089284  0.96337988    -0.19900
C3542       C  0.46032717  0.98482634  0.96029146    -0.12200
C3543       C  0.46628142  0.98765068  0.94544525     0.13500
C3544       C  0.46474600  0.97630428  0.93403711    -0.22600
C3545       C  0.44347647  0.94453089  0.95580972    -0.05700
H3546       H  0.44821099  0.96883684  0.97479516     0.15000
C3547       C  0.47386243  0.00277300  0.94154106    -0.15900
H3548       H  0.46924697  0.97837176  0.92259829     0.09300
H3549       H  0.47069535  0.90235765  0.91597298     0.07200
H3550       H  0.48540470  0.91506526  0.92274885     0.08400
H3551       H  0.48253768  0.91288688  0.90240990     0.07400
H3552       H  0.43990177  0.97605864  0.91173797     0.02300
H3553       H  0.42699061  0.96535402  0.92409147     0.02800
H3554       H  0.42517890  0.96408080  0.90352910     0.06300
H3555       H  0.43924359  0.94433677  0.96785736     0.05300
H3556       H  0.45162133  0.93479820  0.95433709    -0.00500
H3557       H  0.43347876  0.94285832  0.94804508     0.01000
H3558       H  0.48427196  0.00442965  0.94873512     0.04600
H3559       H  0.46570745  0.01238742  0.94366681     0.06600
H3560       H  0.47743553  0.00324666  0.92928968     0.07500
C3561       C  0.42894808  0.75118165  0.88892670    -0.22200
C3562       C  0.42095311  0.75941331  0.87762987     0.09800
C3563       C  0.40950647  0.75200578  0.86885890     0.10200
C3564       C  0.40632261  0.73640602  0.87156761    -0.17100
C3565       C  0.41440752  0.72803942  0.88277314    -0.27500
C3566       C  0.42570368  0.73561065  0.89178046     0.18500
C3567       C  0.42486116  0.77576601  0.87499282     0.12500
C3568       C  0.40074459  0.76056816  0.85659819    -0.11900
H3569       H  0.39763485  0.73063125  0.86473230     0.12800
C3570       C  0.43410027  0.72797852  0.90489957    -0.22700
H3571       H  0.43762700  0.75702786  0.89572134     0.08400
C3572       C  0.41765173  0.78769496  0.88329641     0.04800
C3573       C  0.42127131  0.80306338  0.87982345    -0.19900
C3574       C  0.43190486  0.80670779  0.86822450    -0.12200
C3575       C  0.43959750  0.79465870  0.86037310     0.13500
C3576       C  0.43581952  0.77933761  0.86376376    -0.22600
C3577       C  0.40600225  0.78417845  0.89562570    -0.05700
H3578       H  0.41546659  0.81228669  0.88589665     0.15000
C3579       C  0.45218656  0.79739899  0.84876574    -0.15900
H3580       H  0.44150504  0.77007194  0.85762865     0.09300
H3581       H  0.43243772  0.73485297  0.91553699     0.07200
H3582       H  0.44658336  0.72745301  0.90225611     0.08400
H3583       H  0.42995332  0.71621092  0.90744212     0.07400
H3584       H  0.40884916  0.76493424  0.84774641     0.02300
H3585       H  0.39452452  0.77044361  0.86179519     0.02800
H3586       H  0.39217622  0.75306145  0.85080555     0.06300
H3587       H  0.40139166  0.79485202  0.90094484     0.05300
H3588       H  0.41143850  0.77715834  0.90480816    -0.00500
H3589       H  0.39621722  0.77766279  0.89063439     0.01000
H3590       H  0.46268653  0.79105113  0.85233814     0.04600
H3591       H  0.45547615  0.80966019  0.84766677     0.06600
H3592       H  0.44847131  0.79308366  0.83733921     0.07500
C3593       C  0.42050496  0.90992528  0.76030991    -0.22200
C3594       C  0.43007736  0.90332461  0.74917439     0.09800
C3595       C  0.44246203  0.89387918  0.75371486     0.10200
C3596       C  0.44458980  0.89069691  0.76938676    -0.17100
C3597       C  0.43482714  0.89705698  0.78055811    -0.27500
C3598       C  0.42267147  0.90689022  0.77598412     0.18500
C3599       C  0.42664442  0.90623007  0.73280131     0.12500
C3600       C  0.45347395  0.88732403  0.74204644    -0.11900
H3601       H  0.45392410  0.88323113  0.77296489     0.12800
C3602       C  0.41136171  0.91387049  0.78712682    -0.22700
H3603       H  0.41104040  0.91721785  0.75670113     0.08400
C3604       C  0.41766180  0.89586996  0.72414036     0.04800
C3605       C  0.41450700  0.89922595  0.70869811    -0.19900
C3606       C  0.41989312  0.91282816  0.70178172    -0.12200
C3607       C  0.42855983  0.92341634  0.71067317     0.13500
C3608       C  0.43189805  0.91989113  0.72607048    -0.22600
C3609       C  0.41106445  0.88150059  0.73130689    -0.05700
H3610       H  0.40769779  0.89120546  0.70200114     0.15000
C3611       C  0.43366414  0.93876961  0.70439419    -0.15900
H3612       H  0.43850195  0.92790122  0.73298888     0.09300
H3613       H  0.39952077  0.91025889  0.78397381     0.07200
H3614       H  0.41208790  0.92662481  0.78650659     0.08400
H3615       H  0.41329042  0.91034412  0.79919211     0.07400
H3616       H  0.45906927  0.89685940  0.73563083     0.02300
H3617       H  0.44724574  0.87984548  0.73379830     0.02800
H3618       H  0.46262387  0.88032606  0.74758084     0.06300
H3619       H  0.40413662  0.87477031  0.72294226     0.05300
H3620       H  0.40348275  0.88468162  0.74107522    -0.00500
H3621       H  0.42044025  0.87397942  0.73558780     0.01000
H3622       H  0.43877728  0.94614303  0.71349364     0.04600
H3623       H  0.42366809  0.94503604  0.69949375     0.06600
H3624       H  0.44260366  0.93713087  0.69548353     0.07500
C3625       C  0.14850264  0.43839944  0.53185705    -0.22200
C3626       C  0.13989638  0.44005935  0.54533467     0.09800
C3627       C  0.13060530  0.45318315  0.54748823     0.10200
C3628       C  0.13014687  0.46446902  0.53598188    -0.17100
C3629       C  0.13889091  0.46294117  0.52250359    -0.27500
C3630       C  0.14794070  0.44954665  0.52024146     0.18500
C3631       C  0.14090047  0.42790812  0.55710158     0.12500
C3632       C  0.12143407  0.45538703  0.56202412    -0.11900
H3633       H  0.12317296  0.47468721  0.53764220     0.12800
C3634       C  0.15659016  0.44617207  0.50557811    -0.22700
H3635       H  0.15547791  0.42816279  0.53027549     0.08400
C3636       C  0.13034756  0.41559546  0.55748555     0.04800
C3637       C  0.13154231  0.40459036  0.56920674    -0.19900
C3638       C  0.14316296  0.40557736  0.58037589    -0.12200
C3639       C  0.15429246  0.41744499  0.57936684     0.13500
C3640       C  0.15284204  0.42862258  0.56785508    -0.22600
C3641       C  0.11786617  0.41410534  0.54555568    -0.05700
H3642       H  0.12312097  0.39540607  0.56988939     0.15000
C3643       C  0.16811877  0.41841195  0.58978430    -0.15900
H3644       H  0.16117255  0.43789922  0.56715704     0.09300
H3645       H  0.15307594  0.43470488  0.50113761     0.07200
H3646       H  0.16913539  0.44597566  0.50796116     0.08400
H3647       H  0.15429659  0.45452137  0.49625184     0.07400
H3648       H  0.12930310  0.45560147  0.57207397     0.02300
H3649       H  0.11310826  0.44581001  0.56345337     0.02800
H3650       H  0.11487318  0.46636334  0.56186327     0.06300
H3651       H  0.11064192  0.40373834  0.54753154     0.05300
H3652       H  0.12311670  0.41313561  0.53396023    -0.00500
H3653       H  0.11026454  0.42436118  0.54584003     0.01000
H3654       H  0.17874489  0.41871996  0.58269952     0.04600
H3655       H  0.16920629  0.40842491  0.59762119     0.06600
H3656       H  0.16750484  0.42911413  0.59674000     0.07500
C3657       C  0.46858146  0.11884404  0.55659918    -0.22200
C3658       C  0.48089060  0.10881423  0.55934646     0.09800
C3659       C  0.48197261  0.10104436  0.57353879     0.10200
C3660       C  0.47073100  0.10362965  0.58480689    -0.17100
C3661       C  0.45839047  0.11369805  0.58212798    -0.27500
C3662       C  0.45728410  0.12142120  0.56783183     0.18500
C3663       C  0.49295685  0.10727277  0.54748115     0.12500
C3664       C  0.49497934  0.09004558  0.57675546    -0.11900
H3665       H  0.47157858  0.09778581  0.59579138     0.12800
C3666       C  0.44474613  0.13296528  0.56460721    -0.22700
H3667       H  0.46799560  0.12488048  0.54570042     0.08400
C3668       C  0.49100910  0.09768416  0.53454848     0.04800
C3669       C  0.50273637  0.09690946  0.52349097    -0.19900
C3670       C  0.51626462  0.10559741  0.52508125    -0.12200
C3671       C  0.51834697  0.11490204  0.53828222     0.13500
C3672       C  0.50655630  0.11573720  0.54922530    -0.22600
C3673       C  0.47656590  0.08834416  0.53243346    -0.05700
H3674       H  0.50118268  0.08980027  0.51336149     0.15000
C3675       C  0.53296390  0.12369312  0.54151245    -0.15900
H3676       H  0.50802232  0.12295961  0.55929263     0.09300
H3677       H  0.43340292  0.12715763  0.56435058     0.07200
H3678       H  0.44636550  0.13868284  0.55329467     0.08400
H3679       H  0.44475720  0.14203651  0.57360375     0.07400
H3680       H  0.50613561  0.09623596  0.57618351     0.02300
H3681       H  0.49492225  0.08065073  0.56809638     0.02800
H3682       H  0.49396463  0.08476460  0.58834426     0.06300
H3683       H  0.47697239  0.08134748  0.52175163     0.05300
H3684       H  0.46645972  0.09612243  0.53170687    -0.00500
H3685       H  0.47507118  0.08040318  0.54233085     0.01000
H3686       H  0.53047411  0.13623465  0.54171116     0.04600
H3687       H  0.54218348  0.12149644  0.53301116     0.06600
H3688       H  0.53754427  0.12021971  0.55291807     0.07500
C3689       C  0.49538612  0.45613563  0.92540257    -0.22200
C3690       C  0.48214745  0.45808638  0.91644342     0.09800
C3691       C  0.48059093  0.47120935  0.90703922     0.10200
C3692       C  0.49237392  0.48222109  0.90685848    -0.17100
C3693       C  0.50559763  0.48039167  0.91592717    -0.27500
C3694       C  0.50726854  0.46704620  0.92514442     0.18500
C3695       C  0.47011689  0.44611310  0.91692467     0.12500
C3696       C  0.46651624  0.47353740  0.89720986    -0.11900
H3697       H  0.49119381  0.49240850  0.89973865     0.12800
C3698       C  0.52158805  0.46354423  0.93429704    -0.22700
H3699       H  0.49655972  0.44588227  0.93243278     0.08400
C3700       C  0.47093101  0.43297163  0.90747601     0.04800
C3701       C  0.45916409  0.42197649  0.90825308    -0.19900
C3702       C  0.44670365  0.42373771  0.91840216    -0.12200
C3703       C  0.44620071  0.43675066  0.92823367     0.13500
C3704       C  0.45780755  0.44791046  0.92713328    -0.22600
C3705       C  0.48416706  0.43062499  0.89654021    -0.05700
H3706       H  0.45961531  0.41202101  0.90074949     0.15000
C3707       C  0.43418233  0.43898088  0.94052902    -0.15900
H3708       H  0.45744630  0.45795321  0.93453932     0.09300
H3709       H  0.52626770  0.45220753  0.93067665     0.07200
H3710       H  0.51868744  0.46300787  0.94671678     0.08400
H3711       H  0.53087883  0.47210506  0.93266370     0.07400
H3712       H  0.45611820  0.47404861  0.90460160     0.02300
H3713       H  0.46533916  0.46382706  0.88899172     0.02800
H3714       H  0.46716768  0.48440732  0.89050241     0.06300
H3715       H  0.48296674  0.41975728  0.88991206     0.05300
H3716       H  0.49512357  0.43008265  0.90307333    -0.00500
H3717       H  0.48470572  0.44033552  0.88825089     0.01000
H3718       H  0.43993923  0.44075748  0.95178965     0.04600
H3719       H  0.42646234  0.42896318  0.94195109     0.06600
H3720       H  0.42716352  0.44931755  0.93783349     0.07500
C3721       C  0.47701517  0.09767119  0.92789873    -0.22200
C3722       C  0.46884402  0.08394716  0.92578773     0.09800
C3723       C  0.46059589  0.08150594  0.91204136     0.10200
C3724       C  0.46060569  0.09301499  0.90070748    -0.17100
C3725       C  0.46841179  0.10700231  0.90296345    -0.27500
C3726       C  0.47709289  0.10917538  0.91658891     0.18500
C3727       C  0.46868025  0.07253785  0.93839076     0.12500
C3728       C  0.45128137  0.06706290  0.90961148    -0.11900
H3729       H  0.45394051  0.09135028  0.89030801     0.12800
C3730       C  0.48695031  0.12316916  0.91946676    -0.22700
H3731       H  0.48345037  0.09937808  0.93844516     0.08400
C3732       C  0.47880922  0.05986930  0.93853985     0.04800
C3733       C  0.47783856  0.04915701  0.95055935    -0.19900
C3734       C  0.46735403  0.05112581  0.96270347    -0.12200
C3735       C  0.45804082  0.06452017  0.96310557     0.13500
C3736       C  0.45854170  0.07482253  0.95069556    -0.22600
C3737       C  0.49083702  0.05783827  0.92622837    -0.05700
H3738       H  0.48524580  0.03911188  0.95040676     0.15000
C3739       C  0.44811035  0.06884653  0.97665924    -0.15900
H3740       H  0.45122433  0.08494052  0.95077983     0.09300
H3741       H  0.49887361  0.11945633  0.92216738     0.07200
H3742       H  0.48231962  0.12970359  0.92941396     0.08400
H3743       H  0.48772460  0.13094974  0.90941899     0.07400
H3744       H  0.44242113  0.06607235  0.91875141     0.02300
H3745       H  0.45882132  0.05677680  0.91002202     0.02800
H3746       H  0.44533966  0.06712509  0.89830769     0.06300
H3747       H  0.49794914  0.04740199  0.92823898     0.05300
H3748       H  0.49860240  0.06799259  0.92612590    -0.00500
H3749       H  0.48534485  0.05670994  0.91478654     0.01000
H3750       H  0.45116511  0.08065036  0.98053025     0.04600
H3751       H  0.44967385  0.06122701  0.98673515     0.06600
H3752       H  0.43582006  0.06872280  0.97320147     0.07500
C3753       C  0.42030365  0.24525775  0.88791966    -0.22200
C3754       C  0.42982023  0.25747805  0.88345544     0.09800
C3755       C  0.44306351  0.25456398  0.87459848     0.10200
C3756       C  0.44653740  0.23936867  0.87040396    -0.17100
C3757       C  0.43710495  0.22703745  0.87494309    -0.27500
C3758       C  0.42363799  0.23005660  0.88361465     0.18500
C3759       C  0.42553365  0.27327676  0.88804286     0.12500
C3760       C  0.45350834  0.26748586  0.86963276    -0.11900
H3761       H  0.45680590  0.23706777  0.86371588     0.12800
C3762       C  0.41213924  0.21780090  0.88795085    -0.22700
H3763       H  0.41002104  0.24765636  0.89456376     0.08400
C3764       C  0.41521598  0.28211404  0.87919678     0.04800
C3765       C  0.41110674  0.29686782  0.88427257    -0.19900
C3766       C  0.41709634  0.30296376  0.89797813    -0.12200
C3767       C  0.42734440  0.29397938  0.90692042     0.13500
C3768       C  0.43155303  0.27928902  0.90170850    -0.22600
C3769       C  0.40860508  0.27597445  0.86440610    -0.05700
H3770       H  0.40327597  0.30375361  0.87742621     0.15000
C3771       C  0.43351385  0.29907354  0.92229987    -0.15900
H3772       H  0.43933914  0.27231422  0.90852499     0.09300
H3773       H  0.40058450  0.22113258  0.88363477     0.07200
H3774       H  0.41162150  0.21673282  0.90066078     0.08400
H3775       H  0.41478038  0.20637477  0.88299668     0.07400
H3776       H  0.45815238  0.27347951  0.87990596     0.02300
H3777       H  0.44699103  0.27585114  0.86251035     0.02800
H3778       H  0.46336690  0.26320171  0.86272865     0.06300
H3779       H  0.40078009  0.28442484  0.85885887     0.05300
H3780       H  0.40195793  0.26530531  0.86672635    -0.00500
H3781       H  0.41804114  0.27332829  0.85622500     0.01000
H3782       H  0.43058704  0.29031150  0.93113567     0.04600
H3783       H  0.42866166  0.31014283  0.92629990     0.06600
H3784       H  0.44622063  0.30017757  0.92165201     0.07500
C3785       C  0.46142150  0.15446041  0.75548667    -0.22200
C3786       C  0.44934017  0.14463705  0.75133364     0.09800
C3787       C  0.44181133  0.13586115  0.76273118     0.10200
C3788       C  0.44630929  0.13741587  0.77814480    -0.17100
C3789       C  0.45808010  0.14762619  0.78241630    -0.27500
C3790       C  0.46599840  0.15598660  0.77087479     0.18500
C3791       C  0.44471554  0.14373058  0.73497593     0.12500
C3792       C  0.42872795  0.12522923  0.75867913    -0.11900
H3793       H  0.44020986  0.13105816  0.78697346     0.12800
C3794       C  0.47955260  0.16627816  0.77424535    -0.22700
H3795       H  0.46734633  0.16095923  0.74663292     0.08400
C3796       C  0.43544257  0.15517219  0.72814525     0.04800
C3797       C  0.43102662  0.15357478  0.71270298    -0.19900
C3798       C  0.43558019  0.14074299  0.70398231    -0.12200
C3799       C  0.44454658  0.12906540  0.71103636     0.13500
C3800       C  0.44928099  0.13092741  0.72633429    -0.22600
C3801       C  0.43003921  0.16892010  0.73722457    -0.05700
H3802       H  0.42402563  0.16242486  0.70737700     0.15000
C3803       C  0.44861909  0.11408299  0.70327017    -0.15900
H3804       H  0.45619221  0.12205340  0.73175146     0.09300
H3805       H  0.47664904  0.17835108  0.77119154     0.07200
H3806       H  0.48955195  0.16254028  0.76722975     0.08400
H3807       H  0.48321785  0.16590207  0.78642827     0.07400
H3808       H  0.43282239  0.11612010  0.75072266     0.02300
H3809       H  0.41938143  0.13187382  0.75304679     0.02800
H3810       H  0.42387640  0.11950846  0.76902354     0.06300
H3811       H  0.42265706  0.17664511  0.73021134     0.05300
H3812       H  0.44008746  0.17568102  0.74127559    -0.00500
H3813       H  0.42325179  0.16499920  0.74730911     0.01000
H3814       H  0.46127365  0.11337284  0.70171455     0.04600
H3815       H  0.44296101  0.11248850  0.69200610     0.06600
H3816       H  0.44482803  0.10432165  0.71061003     0.07500
C3817       C  0.12709791  0.06552902  0.60758302    -0.22200
C3818       C  0.11566232  0.06761337  0.59643491     0.09800
C3819       C  0.11577763  0.08088251  0.58710438     0.10200
C3820       C  0.12757593  0.09170510  0.58895646    -0.17100
C3821       C  0.13911674  0.08966765  0.60006524    -0.27500
C3822       C  0.13880221  0.07647914  0.60962887     0.18500
C3823       C  0.10313063  0.05620024  0.59537335     0.12500
C3824       C  0.10324487  0.08380934  0.57549428    -0.11900
H3825       H  0.12770880  0.10192228  0.58178837     0.12800
C3826       C  0.15016147  0.07427973  0.62252883    -0.22700
H3827       H  0.12665600  0.05542580  0.61489963     0.08400
C3828       C  0.10370880  0.04385499  0.58488073     0.04800
C3829       C  0.09141000  0.03341164  0.58431730    -0.19900
C3830       C  0.07863881  0.03499959  0.59409535    -0.12200
C3831       C  0.07794789  0.04768489  0.60434409     0.13500
C3832       C  0.09036301  0.05795333  0.60500603    -0.22600
C3833       C  0.11741003  0.04156126  0.57452220    -0.05700
H3834       H  0.09191993  0.02375382  0.57643483     0.15000
C3835       C  0.06414965  0.05128012  0.61423705    -0.15900
H3836       H  0.08994692  0.06763486  0.61287661     0.09300
H3837       H  0.16189968  0.07268820  0.61784437     0.07200
H3838       H  0.14741561  0.06393412  0.62953001     0.08400
H3839       H  0.14994340  0.08444820  0.63026759     0.07400
H3840       H  0.09194256  0.08438655  0.58140898     0.02300
H3841       H  0.10296360  0.07439603  0.56688325     0.02800
H3842       H  0.10503119  0.09484043  0.56927148     0.06300
H3843       H  0.11603791  0.03125613  0.56708279     0.05300
H3844       H  0.12792931  0.03999433  0.58158736    -0.00500
H3845       H  0.11895066  0.05173813  0.56696480     0.01000
H3846       H  0.06731642  0.05015047  0.62655219     0.04600
H3847       H  0.05408067  0.04387047  0.61185420     0.06600
H3848       H  0.06039264  0.06331202  0.61205282     0.07500
C3849       C  0.13026391  0.26127696  0.62947071    -0.22200
C3850       C  0.14353464  0.25822761  0.62085949     0.09800
C3851       C  0.15188534  0.27044920  0.61424688     0.10200
C3852       C  0.14681061  0.28556171  0.61646519    -0.17100
C3853       C  0.13360907  0.28875479  0.62519547    -0.27500
C3854       C  0.12510377  0.27643965  0.63166967     0.18500
C3855       C  0.14860597  0.24217381  0.61870254     0.12500
C3856       C  0.16626370  0.26753240  0.60500492    -0.11900
H3857       H  0.15340532  0.29498308  0.61161718     0.12800
C3858       C  0.11035921  0.27875472  0.64048305    -0.22700
H3859       H  0.12384406  0.25176486  0.63438818     0.08400
C3860       C  0.15881844  0.23512552  0.62911926     0.04800
C3861       C  0.16465177  0.22047709  0.62572939    -0.19900
C3862       C  0.16046153  0.21275703  0.61217819    -0.12200
C3863       C  0.15020705  0.21989989  0.60172127     0.13500
C3864       C  0.14425262  0.23446627  0.60525975    -0.22600
C3865       C  0.16362747  0.24313710  0.64370835    -0.05700
H3866       H  0.17243583  0.21496048  0.63376105     0.15000
C3867       C  0.14589646  0.21300504  0.58640565    -0.15900
H3868       H  0.13661105  0.24013416  0.59718615     0.09300
H3869       H  0.11185147  0.27459404  0.65246213     0.07200
H3870       H  0.10100316  0.27204525  0.63493960     0.08400
H3871       H  0.10658911  0.29092721  0.64083810     0.07400
H3872       H  0.16350252  0.26024288  0.59489246     0.02300
H3873       H  0.17492781  0.26154992  0.61223276     0.02800
H3874       H  0.17146595  0.27841819  0.60075988     0.06300
H3875       H  0.17170008  0.23599653  0.65057716     0.05300
H3876       H  0.15333773  0.24553959  0.65087720    -0.00500
H3877       H  0.16945056  0.25416819  0.64091200     0.01000
H3878       H  0.13334839  0.21063799  0.58616365     0.04600
H3879       H  0.15213689  0.20222544  0.58376070     0.06600
H3880       H  0.14870245  0.22130662  0.57709906     0.07500
C3881       C  0.31689639  0.13374275  0.60767354    -0.22200
C3882       C  0.30760788  0.13200344  0.62071586     0.09800
C3883       C  0.31451168  0.12991099  0.63523865     0.10200
C3884       C  0.33058585  0.12945293  0.63631802    -0.17100
C3885       C  0.34000066  0.13132080  0.62329867    -0.27500
C3886       C  0.33299739  0.13374698  0.60876437     0.18500
C3887       C  0.29068699  0.13284127  0.61889681     0.12500
C3888       C  0.30499609  0.12862577  0.64967773    -0.11900
H3889       H  0.33582574  0.12766026  0.64747643     0.12800
C3890       C  0.34216598  0.13714103  0.59445161    -0.22700
H3891       H  0.31146164  0.13531891  0.59656549     0.08400
C3892       C  0.28334575  0.14663798  0.61454619     0.04800
C3893       C  0.26735422  0.14678754  0.61273137    -0.19900
C3894       C  0.25829769  0.13366203  0.61568917    -0.12200
C3895       C  0.26574012  0.11989155  0.62045196     0.13500
C3896       C  0.28185205  0.11963881  0.62166257    -0.22600
C3897       C  0.29226333  0.16137681  0.61228862    -0.05700
H3898       H  0.26193443  0.15737042  0.60900373     0.15000
C3899       C  0.25705289  0.10555199  0.62489069    -0.15900
H3900       H  0.28764019  0.10907195  0.62492488     0.09300
H3901       H  0.33465274  0.14092646  0.58483445     0.07200
H3902       H  0.34818307  0.12663367  0.59049666     0.08400
H3903       H  0.35053161  0.14654043  0.59669663     0.07400
H3904       H  0.29770430  0.11815676  0.64925459     0.02300
H3905       H  0.29755827  0.13895366  0.65086849     0.02800
H3906       H  0.31231612  0.12780514  0.66011147     0.06300
H3907       H  0.28456501  0.17126537  0.60974880     0.05300
H3908       H  0.30036674  0.16020816  0.60251944    -0.00500
H3909       H  0.29879726  0.16412334  0.62290959     0.01000
H3910       H  0.25223720  0.09997681  0.61450681     0.04600
H3911       H  0.24781658  0.10839715  0.63323515     0.06600
H3912       H  0.26468667  0.09692566  0.63044242     0.07500
C3913       C  0.10179848  0.41152933  0.91123922    -0.22200
C3914       C  0.10438915  0.42268965  0.92257118     0.09800
C3915       C  0.11826990  0.43106810  0.92269097     0.10200
C3916       C  0.12928001  0.42818552  0.91131288    -0.17100
C3917       C  0.12668761  0.41716002  0.89981108    -0.27500
C3918       C  0.11284110  0.40859005  0.89983571     0.18500
C3919       C  0.09263309  0.42516473  0.93454233     0.12500
C3920       C  0.12141105  0.44307945  0.93479367    -0.11900
H3921       H  0.13994943  0.43465208  0.91132732     0.12800
C3922       C  0.10994574  0.39588714  0.88839340    -0.22700
H3923       H  0.09116241  0.40501138  0.91144410     0.08400
C3924       C  0.07999612  0.43503898  0.93210456     0.04800
C3925       C  0.06953111  0.43754134  0.94411761    -0.19900
C3926       C  0.07147166  0.43033525  0.95842390    -0.12200
C3927       C  0.08434092  0.42064181  0.96091336     0.13500
C3928       C  0.09463400  0.41801969  0.94882263    -0.22600
C3929       C  0.07764502  0.44295432  0.91687766    -0.05700
H3930       H  0.05967462  0.44496781  0.94228175     0.15000
C3931       C  0.08802499  0.41341727  0.97626241    -0.15900
H3932       H  0.10453935  0.41064714  0.95065236     0.09300
H3933       H  0.10909933  0.40068790  0.87662400     0.07200
H3934       H  0.09900838  0.38973193  0.89082065     0.08400
H3935       H  0.11944232  0.38734932  0.88888922     0.07400
H3936       H  0.12136709  0.43767241  0.94635920     0.02300
H3937       H  0.11240800  0.45213701  0.93433832     0.02800
H3938       H  0.13276971  0.44868472  0.93309008     0.06300
H3939       H  0.06722676  0.45035833  0.91694156     0.05300
H3940       H  0.07627185  0.43421763  0.90766239    -0.00500
H3941       H  0.08774259  0.45032395  0.91422847     0.01000
H3942       H  0.08761756  0.40067774  0.97522117     0.04600
H3943       H  0.08013730  0.41699961  0.98558522     0.06600
H3944       H  0.09979083  0.41688109  0.97984396     0.07500
C3945       C  0.30638225  0.40335374  0.88595650    -0.22200
C3946       C  0.29514620  0.39323821  0.89149678     0.09800
C3947       C  0.29940461  0.38074851  0.90091355     0.10200
C3948       C  0.31493823  0.37866340  0.90460940    -0.17100
C3949       C  0.32632733  0.38862452  0.89889462    -0.27500
C3950       C  0.32199576  0.40103991  0.88921272     0.18500
C3951       C  0.27910983  0.39537430  0.88642114     0.12500
C3952       C  0.28756384  0.36965514  0.90704758    -0.11900
H3953       H  0.31823248  0.36912335  0.91194973     0.12800
C3954       C  0.33333522  0.41146243  0.88120867    -0.22700
H3955       H  0.30298183  0.41274450  0.87846154     0.08400
C3956       C  0.26947043  0.40652241  0.89315673     0.04800
C3957       C  0.25438777  0.40818132  0.88770859    -0.19900
C3958       C  0.24878381  0.39890805  0.87571564    -0.12200
C3959       C  0.25836920  0.38734287  0.86936349     0.13500
C3960       C  0.27352983  0.38598865  0.87459642    -0.22600
C3961       C  0.27511002  0.41659495  0.90607633    -0.05700
H3962       H  0.24701721  0.41694955  0.89265047     0.15000
C3963       C  0.25294966  0.37573392  0.85765931    -0.15900
H3964       H  0.28099669  0.37729591  0.86964290     0.09300
H3965       H  0.33215533  0.42336610  0.88571776     0.07200
H3966       H  0.33086390  0.41157831  0.86867932     0.08400
H3967       H  0.34541746  0.40772759  0.88239690     0.07400
H3968       H  0.28167725  0.36376034  0.89737653     0.02300
H3969       H  0.27892585  0.37600660  0.91398841     0.02800
H3970       H  0.29284972  0.36068298  0.91446310     0.06300
H3971       H  0.26601486  0.42458505  0.91017304     0.05300
H3972       H  0.28503173  0.42360043  0.90211967    -0.00500
H3973       H  0.27875790  0.40930118  0.91591097     0.01000
H3974       H  0.25915329  0.37755419  0.84664985     0.04600
H3975       H  0.24042317  0.37617601  0.85551226     0.06600
H3976       H  0.25546460  0.36392740  0.86189365     0.07500
C3977       C  0.16734453  0.38757087  0.75707797    -0.22200
C3978       C  0.15666923  0.39737101  0.75006070     0.09800
C3979       C  0.15065324  0.40999988  0.75825028     0.10200
C3980       C  0.15544734  0.41252510  0.77343113    -0.17100
C3981       C  0.16617306  0.40274693  0.78054882    -0.27500
C3982       C  0.17219135  0.39005331  0.77225566     0.18500
C3983       C  0.15161550  0.39381525  0.73425574     0.12500
C3984       C  0.13918912  0.42075925  0.75095612    -0.11900
H3985       H  0.15077272  0.42217661  0.77980741     0.12800
C3986       C  0.18307925  0.37862026  0.77944392    -0.22700
H3987       H  0.17174870  0.37781530  0.75066113     0.08400
C3988       C  0.16046239  0.39814179  0.72139246     0.04800
C3989       C  0.15557049  0.39376593  0.70667088    -0.19900
C3990       C  0.14202863  0.38517745  0.70456793    -0.12200
C3991       C  0.13280932  0.38148776  0.71748330     0.13500
C3992       C  0.13789135  0.38564070  0.73219601    -0.22600
C3993       C  0.17508130  0.40727058  0.72324773    -0.05700
H3994       H  0.16259004  0.39669482  0.69679369     0.15000
C3995       C  0.11734098  0.37373335  0.71624551    -0.15900
H3996       H  0.13103123  0.38259144  0.74215917     0.09300
H3997       H  0.19431484  0.38414664  0.78178767     0.07200
H3998       H  0.18532358  0.36869232  0.77170795     0.08400
H3999       H  0.17809427  0.37404267  0.79027411     0.07400
H4000       H  0.12867860  0.41428904  0.74766997     0.02300
H4001       H  0.14429617  0.42607449  0.74052578     0.02800
H4002       H  0.13575206  0.43014703  0.75891926     0.06300
H4003       H  0.18053943  0.40982371  0.71198519     0.05300
H4004       H  0.18343467  0.40067416  0.73030510    -0.00500
H4005       H  0.17252493  0.41838057  0.72902792     0.01000
H4006       H  0.11780361  0.36228154  0.72191129     0.04600
H4007       H  0.11340009  0.37224075  0.70424424     0.06600
H4008       H  0.10854519  0.38089935  0.72212548     0.07500
C4009       C  0.61564622  0.12015501  0.56790588    -0.22200
C4010       C  0.61704572  0.10906326  0.55631634     0.09800
C4011       C  0.62991929  0.09917658  0.55617976     0.10200
C4012       C  0.64104034  0.10047466  0.56783141    -0.17100
C4013       C  0.63955807  0.11141804  0.57963795    -0.27500
C4014       C  0.62683262  0.12165148  0.57943870     0.18500
C4015       C  0.60498962  0.10820207  0.54429434     0.12500
C4016       C  0.63172966  0.08707338  0.54391199    -0.11900
H4017       H  0.65074383  0.09263689  0.56794383     0.12800
C4018       C  0.62491551  0.13470940  0.59070284    -0.22700
H4019       H  0.60585501  0.12789576  0.56778854     0.08400
C4020       C  0.59098523  0.10041319  0.54688457     0.04800
C4021       C  0.57995052  0.09986568  0.53512092    -0.19900
C4022       C  0.58251579  0.10711258  0.52091965    -0.12200
C4023       C  0.59659982  0.11487083  0.51830601     0.13500
C4024       C  0.60762555  0.11537034  0.53009132    -0.22600
C4025       C  0.58771329  0.09268541  0.56204237    -0.05700
H4026       H  0.56913524  0.09396201  0.53709696     0.15000
C4027       C  0.60065322  0.12226256  0.50314719    -0.15900
H4028       H  0.61844262  0.12128145  0.52814719     0.09300
H4029       H  0.61454997  0.13267133  0.59787868     0.07200
H4030       H  0.62339533  0.14567408  0.58429711     0.08400
H4031       H  0.63498335  0.13633208  0.59830527     0.07400
H4032       H  0.63240972  0.09263317  0.53243866     0.02300
H4033       H  0.62171570  0.07913606  0.54416293     0.02800
H4034       H  0.64233601  0.08014734  0.54560644     0.06300
H4035       H  0.57626607  0.08699911  0.56209749     0.05300
H4036       H  0.58787506  0.10135532  0.57141810    -0.00500
H4037       H  0.59658620  0.08378756  0.56436428     0.01000
H4038       H  0.60239704  0.13481853  0.50483375     0.04600
H4039       H  0.59176631  0.12059246  0.49418420     0.06600
H4040       H  0.61149169  0.11715230  0.49871637     0.07500
C4041       C  0.96855728  0.42317804  0.56213934    -0.22200
C4042       C  0.95807926  0.43538044  0.56323056     0.09800
C4043       C  0.95006524  0.43782717  0.57711055     0.10200
C4044       C  0.95234579  0.42767222  0.58946594    -0.17100
C4045       C  0.96257028  0.41518279  0.58831865    -0.27500
C4046       C  0.97118870  0.41324625  0.57460458     0.18500
C4047       C  0.95580019  0.44558688  0.54974827     0.12500
C4048       C  0.93913335  0.45117042  0.57886282    -0.11900
H4049       H  0.94581781  0.42929705  0.59995582     0.12800
C4050       C  0.98372119  0.40137362  0.57284384    -0.22700
H4051       H  0.97495080  0.42157508  0.55155280     0.08400
C4052       C  0.96625981  0.45748171  0.54626018     0.04800
C4053       C  0.96350485  0.46697838  0.53349057    -0.19900
C4054       C  0.95043396  0.46499096  0.52414297    -0.12200
C4055       C  0.94002073  0.45289518  0.52763679     0.13500
C4056       C  0.94288706  0.44334871  0.54038314    -0.22600
C4057       C  0.98018257  0.46030544  0.55618054    -0.05700
H4058       H  0.97150097  0.47622091  0.53097246     0.15000
C4059       C  0.92617283  0.44957498  0.51778428    -0.15900
H4060       H  0.93499587  0.43407281  0.54311816     0.09300
H4061       H  0.99449347  0.40713621  0.56908753     0.07200
H4062       H  0.98032401  0.39280877  0.56399731     0.08400
H4063       H  0.98646959  0.39529114  0.58367736     0.07400
H4064       H  0.92966489  0.45016812  0.57036324     0.02300
H4065       H  0.94538289  0.46215692  0.57692519     0.02800
H4066       H  0.93395816  0.45154655  0.59053209     0.06300
H4067       H  0.98706343  0.47023762  0.55199272     0.05300
H4068       H  0.98769601  0.44997053  0.55614807    -0.00500
H4069       H  0.97650435  0.46279035  0.56815091     0.01000
H4070       H  0.91984767  0.43920700  0.52179712     0.04600
H4071       H  0.92993066  0.44742263  0.50580168     0.06600
H4072       H  0.91803349  0.45940460  0.51814201     0.07500
C4073       C  0.61882737  0.44871915  0.90388804    -0.22200
C4074       C  0.60789323  0.44713485  0.91559398     0.09800
C4075       C  0.60826975  0.43412218  0.92527419     0.10200
C4076       C  0.61964912  0.42289524  0.92299239    -0.17100
C4077       C  0.63058058  0.42436859  0.91119110    -0.27500
C4078       C  0.63003743  0.43738909  0.90136449     0.18500
C4079       C  0.59541013  0.45863553  0.91664561     0.12500
C4080       C  0.59663583  0.43210581  0.93794883    -0.11900
H4081       H  0.62003684  0.41291056  0.93047152     0.12800
C4082       C  0.64037484  0.43938700  0.88758214    -0.22700
H4083       H  0.61824310  0.45861761  0.89629723     0.08400
C4084       C  0.59724915  0.47260016  0.92471229     0.04800
C4085       C  0.58515752  0.48332478  0.92480646    -0.19900
C4086       C  0.57141003  0.48038585  0.91686429    -0.12200
C4087       C  0.56942615  0.46613373  0.90921341     0.13500
C4088       C  0.58154656  0.45551832  0.90907756    -0.22600
C4089       C  0.61200337  0.47620295  0.93303040    -0.05700
H4090       H  0.58660444  0.49423405  0.93069707     0.15000
C4091       C  0.55460480  0.46150631  0.90145710    -0.15900
H4092       H  0.58016506  0.44466598  0.90305713     0.09300
H4093       H  0.64772927  0.44971485  0.88920523     0.07200
H4094       H  0.63321719  0.44105508  0.87713603     0.08400
H4095       H  0.64784048  0.42933210  0.88532871     0.07400
H4096       H  0.58487681  0.43157596  0.93300335     0.02300
H4097       H  0.59734076  0.44197054  0.94603758     0.02800
H4098       H  0.59864666  0.42134275  0.94455575     0.06300
H4099       H  0.61151915  0.48760546  0.93879946     0.05300
H4100       H  0.62171507  0.47635491  0.92474334    -0.00500
H4101       H  0.61421476  0.46729485  0.94191910     0.01000
H4102       H  0.55663296  0.45995704  0.88895017     0.04600
H4103       H  0.54520555  0.46996021  0.90304779     0.06600
H4104       H  0.55052330  0.45042533  0.90636998     0.07500
C4105       C  0.96880778  0.44753737  0.91391201    -0.22200
C4106       C  0.96816876  0.43779549  0.92672096     0.09800
C4107       C  0.95541007  0.42799070  0.92876375     0.10200
C4108       C  0.94375377  0.42776890  0.91762706    -0.17100
C4109       C  0.94451118  0.43719432  0.90451241    -0.27500
C4110       C  0.95700189  0.44760214  0.90290235     0.18500
C4111       C  0.98095026  0.43802481  0.93794375     0.12500
C4112       C  0.95424253  0.41759323  0.94258617    -0.11900
H4113       H  0.93422201  0.41983482  0.91896326     0.12800
C4114       C  0.95805385  0.45935425  0.89017857    -0.22700
H4115       H  0.97850626  0.45528747  0.91260728     0.08400
C4116       C  0.99381663  0.42828466  0.93626486     0.04800
C4117       C  0.00522964  0.42823091  0.94767430    -0.19900
C4118       C  0.00412784  0.43783619  0.96060890    -0.12200
C4119       C  0.99120587  0.44765878  0.96223066     0.13500
C4120       C  0.97984209  0.44768810  0.95077917    -0.22600
C4121       C  0.99546128  0.41797943  0.92243336    -0.05700
H4122       H  0.01516545  0.42079053  0.94641157     0.15000
C4123       C  0.98859529  0.45774256  0.97610946    -0.15900
H4124       H  0.96983723  0.45504064  0.95204442     0.09300
H4125       H  0.96797877  0.45661028  0.88262723     0.07200
H4126       H  0.95982193  0.47096756  0.89523373     0.08400
H4127       H  0.94749144  0.46007622  0.88312492     0.07400
H4128       H  0.95420060  0.42462057  0.95324726     0.02300
H4129       H  0.96419718  0.40959279  0.94286393     0.02800
H4130       H  0.94354445  0.41060079  0.94238774     0.06300
H4131       H  0.00623150  0.41111421  0.92288648     0.05300
H4132       H  0.99569889  0.42507505  0.91181336    -0.00500
H4133       H  0.98560699  0.40986902  0.92185040     0.01000
H4134       H  0.98849498  0.47001889  0.97252697     0.04600
H4135       H  0.99736697  0.45624341  0.98520417     0.06600
H4136       H  0.97729232  0.45489131  0.98133835     0.07500
C4137       C  0.93531705  0.41973868  0.76240012    -0.22200
C4138       C  0.92864007  0.40734537  0.75458398     0.09800
C4139       C  0.91586058  0.39968435  0.76097934     0.10200
C4140       C  0.91020511  0.40442123  0.77531233    -0.17100
C4141       C  0.91704200  0.41665943  0.78338088    -0.27500
C4142       C  0.92949857  0.42473178  0.77658448     0.18500
C4143       C  0.93508014  0.40266651  0.73958361     0.12500
C4144       C  0.90837241  0.38636726  0.75277003    -0.11900
H4145       H  0.90067496  0.39822297  0.78043872     0.12800
C4146       C  0.93655629  0.43900162  0.78350496    -0.22700
H4147       H  0.94495460  0.42575212  0.75723069     0.08400
C4148       C  0.92957238  0.40902292  0.72573580     0.04800
C4149       C  0.93547234  0.40364906  0.71173195    -0.19900
C4150       C  0.94685818  0.39217427  0.71128795    -0.12200
C4151       C  0.95293126  0.38640081  0.72526524     0.13500
C4152       C  0.94677735  0.39158636  0.73924595    -0.22600
C4153       C  0.91741639  0.42139112  0.72576821    -0.05700
H4154       H  0.93090899  0.40818557  0.70105433     0.15000
C4155       C  0.96621737  0.37526854  0.72596800    -0.15900
H4156       H  0.95119225  0.38702359  0.74998327     0.09300
H4157       H  0.93659932  0.44838091  0.77481750     0.07200
H4158       H  0.94860072  0.43656489  0.78698189     0.08400
H4159       H  0.93011247  0.44345218  0.79352889     0.07400
H4160       H  0.91688862  0.37699417  0.75106606     0.02300
H4161       H  0.90401609  0.39018414  0.74139808     0.02800
H4162       H  0.89852576  0.38163104  0.75939527     0.06300
H4163       H  0.91439592  0.42510099  0.71392546     0.05300
H4164       H  0.92168172  0.43160845  0.73215002    -0.00500
H4165       H  0.90680880  0.41706172  0.73139971     0.01000
H4166       H  0.97556035  0.38029781  0.73308530     0.04600
H4167       H  0.97123210  0.37269844  0.71456052     0.06600
H4168       H  0.96237772  0.36431735  0.73133170     0.07500
C4169       C  0.80342186  0.38924662  0.86810185    -0.22200
C4170       C  0.79655474  0.39761779  0.88001211     0.09800
C4171       C  0.80485900  0.40933092  0.88752192     0.10200
C4172       C  0.81983935  0.41271498  0.88265366    -0.17100
C4173       C  0.82668982  0.40463502  0.87045506    -0.27500
C4174       C  0.81845765  0.39253907  0.86323823     0.18500
C4175       C  0.78053167  0.39407582  0.88431607     0.12500
C4176       C  0.79784804  0.41829517  0.90058884    -0.11900
H4177       H  0.82618449  0.42185290  0.88829931     0.12800
C4178       C  0.82556120  0.38260895  0.85092713    -0.22700
H4179       H  0.79693856  0.38012024  0.86258745     0.08400
C4180       C  0.76807095  0.40072658  0.87635108     0.04800
C4181       C  0.75302981  0.39721138  0.88094597    -0.19900
C4182       C  0.75024765  0.38704736  0.89317022    -0.12200
C4183       C  0.76275928  0.38053664  0.90126743     0.13500
C4184       C  0.77780822  0.38413673  0.89670139    -0.22600
C4185       C  0.77068704  0.41152411  0.86304266    -0.05700
H4186       H  0.74338638  0.40219585  0.87480577     0.15000
C4187       C  0.76031745  0.37028398  0.91503647    -0.15900
H4188       H  0.78751131  0.37925706  0.90283144     0.09300
H4189       H  0.82745817  0.38940472  0.84032745     0.07200
H4190       H  0.81797135  0.37280244  0.84780105     0.08400
H4191       H  0.83663993  0.37778295  0.85506564     0.07400
H4192       H  0.79486177  0.41034772  0.91013539     0.02300
H4193       H  0.78726692  0.42422947  0.89659174     0.02800
H4194       H  0.80588736  0.42713453  0.90513181     0.06300
H4195       H  0.75967482  0.41578088  0.85815836     0.05300
H4196       H  0.77706849  0.40547381  0.85378475    -0.00500
H4197       H  0.77748102  0.42163071  0.86692207     0.01000
H4198       H  0.75434809  0.35955298  0.91157294     0.04600
H4199       H  0.75331969  0.37642906  0.92377700     0.06600
H4200       H  0.77139203  0.36694737  0.92046546     0.07500
C4201       C  0.96592298  0.07203939  0.58084017    -0.22200
C4202       C  0.97776317  0.07187693  0.59174461     0.09800
C4203       C  0.97908354  0.08402846  0.60239577     0.10200
C4204       C  0.96832198  0.09603346  0.60205821    -0.17100
C4205       C  0.95635679  0.09625783  0.59120753    -0.27500
C4206       C  0.95531763  0.08421367  0.58024060     0.18500
C4207       C  0.98920875  0.05931697  0.59134417     0.12500
C4208       C  0.99190086  0.08434083  0.61405897    -0.11900
H4209       H  0.96916399  0.10522735  0.61044454     0.12800
C4210       C  0.94379182  0.08411350  0.56729019    -0.22700
H4211       H  0.96520880  0.06279927  0.57248164     0.08400
C4212       C  0.98747233  0.04592547  0.60033685     0.04800
C4213       C  0.99915642  0.03478996  0.60023473    -0.19900
C4214       C  0.01248971  0.03677139  0.59132852    -0.12200
C4215       C  0.01425150  0.05032656  0.58242150     0.13500
C4216       C  0.00243361  0.06130326  0.58237830    -0.22600
C4217       C  0.97330628  0.04341450  0.60999145    -0.05700
H4218       H  0.99782092  0.02440346  0.60703217     0.15000
C4219       C  0.02865073  0.05408692  0.57349307    -0.15900
H4220       H  0.00375693  0.07176387  0.57568426     0.09300
H4221       H  0.93586733  0.07418135  0.56868697     0.07200
H4222       H  0.94994578  0.08292464  0.55616216     0.08400
H4223       H  0.93693646  0.09481679  0.56654396     0.07400
H4224       H  0.00318241  0.08448305  0.60807917     0.02300
H4225       H  0.99125369  0.07398992  0.62151874     0.02800
H4226       H  0.99125053  0.09469018  0.62153344     0.06300
H4227       H  0.97378293  0.03229823  0.61630019     0.05300
H4228       H  0.96296375  0.04330494  0.60250611    -0.00500
H4229       H  0.97215571  0.05281103  0.61855990     0.01000
H4230       H  0.02591896  0.05467003  0.56103756     0.04600
H4231       H  0.03806745  0.04569912  0.57523841     0.06600
H4232       H  0.03311596  0.06546856  0.57724740     0.07500
C4233       C  0.92715003  0.24274185  0.62936999    -0.22200
C4234       C  0.93812271  0.24944333  0.61969613     0.09800
C4235       C  0.94552282  0.24044303  0.60842400     0.10200
C4236       C  0.94142276  0.22489968  0.60679821    -0.17100
C4237       C  0.93019681  0.21819353  0.61629002    -0.27500
C4238       C  0.92328256  0.22714246  0.62803591     0.18500
C4239       C  0.94234708  0.26568616  0.62230819     0.12500
C4240       C  0.95772023  0.24725269  0.59816631    -0.11900
H4241       H  0.94677982  0.21803236  0.59787525     0.12800
C4242       C  0.91238037  0.22058541  0.63983281    -0.22700
H4243       H  0.92184566  0.24966764  0.63829177     0.08400
C4244       C  0.93487954  0.27782063  0.61455459     0.04800
C4245       C  0.93913449  0.29305909  0.61781710    -0.19900
C4246       C  0.95047214  0.29636857  0.62884300    -0.12200
C4247       C  0.95809518  0.28411555  0.63642017     0.13500
C4248       C  0.95380957  0.26892494  0.63312182    -0.22600
C4249       C  0.92223272  0.27468217  0.60313517    -0.05700
H4250       H  0.93327760  0.30245568  0.61206071     0.15000
C4251       C  0.97110320  0.28648624  0.64763373    -0.15900
H4252       H  0.95953143  0.25948846  0.63896361     0.09300
H4253       H  0.90084663  0.22588738  0.63841707     0.07200
H4254       H  0.91672044  0.22325825  0.65154297     0.08400
H4255       H  0.91124684  0.20790953  0.63918510     0.07400
H4256       H  0.96739141  0.25162052  0.60526965     0.02300
H4257       H  0.95283660  0.25691581  0.59139267     0.02800
H4258       H  0.96237353  0.23860154  0.58999226     0.06300
H4259       H  0.91753826  0.28550416  0.59819432     0.05300
H4260       H  0.91267931  0.26844655  0.60888673    -0.00500
H4261       H  0.92668745  0.26753415  0.59354813     0.01000
H4262       H  0.96762043  0.28223209  0.65915976     0.04600
H4263       H  0.97473563  0.29865362  0.64867193     0.06600
H4264       H  0.98131760  0.27987400  0.64373211     0.07500
C4265       C  0.80965441  0.13746888  0.60403833    -0.22200
C4266       C  0.80651523  0.12664496  0.61556923     0.09800
C4267       C  0.81874875  0.11975528  0.62370151     0.10200
C4268       C  0.83394095  0.12381649  0.62004307    -0.17100
C4269       C  0.83712308  0.13473990  0.60857633    -0.27500
C4270       C  0.82483932  0.14163991  0.60043925     0.18500
C4271       C  0.79030664  0.12244922  0.61867121     0.12500
C4272       C  0.81574109  0.10815251  0.63622245    -0.11900
H4273       H  0.84338925  0.11855393  0.62625386     0.12800
C4274       C  0.82767863  0.15290735  0.58756565    -0.22700
H4275       H  0.80015816  0.14259047  0.59778350     0.08400
C4276       C  0.78122231  0.13090365  0.62910342     0.04800
C4277       C  0.76584456  0.12658049  0.63148170    -0.19900
C4278       C  0.75930356  0.11410686  0.62352298    -0.12200
C4279       C  0.76857474  0.10544569  0.61329169     0.13500
C4280       C  0.78392754  0.10984335  0.61090843    -0.22600
C4281       C  0.78773187  0.14455958  0.63757527    -0.05700
H4282       H  0.75877592  0.13320125  0.63933660     0.15000
C4283       C  0.76294271  0.09121443  0.60512123    -0.15900
H4284       H  0.79104635  0.10329315  0.60302987     0.09300
H4285       H  0.83326321  0.16345472  0.59207594     0.07200
H4286       H  0.81679037  0.15644977  0.58189620     0.08400
H4287       H  0.83517785  0.14754721  0.57872624     0.07400
H4288       H  0.80949374  0.09809580  0.63141439     0.02300
H4289       H  0.80866841  0.11347528  0.64542158     0.02800
H4290       H  0.82659701  0.10393997  0.64148160     0.06300
H4291       H  0.77907924  0.14989678  0.64531226     0.05300
H4292       H  0.79157204  0.15342392  0.62921008    -0.00500
H4293       H  0.79769687  0.14089729  0.64466538     0.01000
H4294       H  0.76320085  0.09316646  0.59250834     0.04600
H4295       H  0.75114894  0.08780203  0.60847950     0.06600
H4296       H  0.77061555  0.08137984  0.60792886     0.07500
C4297       C  0.61022008  0.05676135  0.92855117    -0.22200
C4298       C  0.61878871  0.07027811  0.93055094     0.09800
C4299       C  0.62841203  0.07189958  0.94349014     0.10200
C4300       C  0.62910961  0.05995510  0.95431699    -0.17100
C4301       C  0.62028034  0.04654283  0.95252751    -0.27500
C4302       C  0.61095020  0.04475672  0.93931228     0.18500
C4303       C  0.61754346  0.08257831  0.91888696     0.12500
C4304       C  0.63776708  0.08629869  0.94593410    -0.11900
H4305       H  0.63628440  0.06124346  0.96443266     0.12800
C4306       C  0.60206936  0.03022965  0.93588495    -0.22700
H4307       H  0.60303450  0.05552057  0.91843497     0.08400
C4308       C  0.62714319  0.08278561  0.90584782     0.04800
C4309       C  0.62547051  0.09463916  0.89504208    -0.19900
C4310       C  0.61439367  0.10627547  0.89695562    -0.12200
C4311       C  0.60456775  0.10585922  0.90994856     0.13500
C4312       C  0.60640488  0.09406563  0.92083097    -0.22600
C4313       C  0.63916675  0.07053209  0.90338775    -0.05700
H4314       H  0.63302586  0.09494225  0.88513270     0.15000
C4315       C  0.59165116  0.11715957  0.91246607    -0.15900
H4316       H  0.59893588  0.09368236  0.93081216     0.09300
H4317       H  0.60557333  0.02571967  0.92446185     0.07200
H4318       H  0.58956893  0.03283119  0.93563215     0.08400
H4319       H  0.60412060  0.02091393  0.94433807     0.07400
H4320       H  0.63000208  0.09641601  0.94675445     0.02300
H4321       H  0.64579803  0.08798314  0.93615875     0.02800
H4322       H  0.64465999  0.08568759  0.95666859     0.06300
H4323       H  0.64573003  0.07244664  0.89259812     0.05300
H4324       H  0.63357558  0.05905756  0.90266859    -0.00500
H4325       H  0.64743918  0.07054592  0.91310466     0.01000
H4326       H  0.58065182  0.11077936  0.91375997     0.04600
H4327       H  0.59011347  0.12531538  0.90281562     0.06600
H4328       H  0.59382259  0.12382961  0.92313693     0.07500
C4329       C  0.63381429  0.25520409  0.86351675    -0.22200
C4330       C  0.64462311  0.25705392  0.87531670     0.09800
C4331       C  0.65099236  0.24396857  0.88251905     0.10200
C4332       C  0.64635495  0.22924572  0.87775531    -0.17100
C4333       C  0.63569720  0.22733381  0.86578696    -0.27500
C4334       C  0.62929088  0.24048028  0.85860089     0.18500
C4335       C  0.64912136  0.27281740  0.87997831     0.12500
C4336       C  0.66286198  0.24556390  0.89503650    -0.11900
H4337       H  0.65126314  0.21915750  0.88322337     0.12800
C4338       C  0.61729222  0.23909976  0.84617398    -0.22700
H4339       H  0.62891749  0.26535207  0.85814756     0.08400
C4340       C  0.65973861  0.28149714  0.87130649     0.04800
C4341       C  0.66392254  0.29624316  0.87638211    -0.19900
C4342       C  0.65762133  0.30255224  0.88984564    -0.12200
C4343       C  0.64704338  0.29378325  0.89858304     0.13500
C4344       C  0.64288186  0.27901687  0.89347973    -0.22600
C4345       C  0.66679302  0.27510901  0.85683132    -0.05700
H4346       H  0.67208588  0.30294313  0.86974154     0.15000
C4347       C  0.64064984  0.29958379  0.91360688    -0.15900
H4348       H  0.63483139  0.27217414  0.90011465     0.09300
H4349       H  0.62227268  0.23355544  0.83584113     0.07200
H4350       H  0.61284207  0.25055110  0.84261269     0.08400
H4351       H  0.60743233  0.23216845  0.85041878     0.07400
H4352       H  0.65789768  0.25188846  0.90494962     0.02300
H4353       H  0.67297269  0.25199281  0.89059307     0.02800
H4354       H  0.66689306  0.23416811  0.89921548     0.06300
H4355       H  0.67508340  0.28331174  0.85159241     0.05300
H4356       H  0.65765195  0.27270872  0.84825331    -0.00500
H4357       H  0.67302588  0.26426608  0.85948104     0.01000
H4358       H  0.63331503  0.30982527  0.91163054     0.04600
H4359       H  0.65022139  0.30262176  0.92149582     0.06600
H4360       H  0.63343214  0.29074928  0.91938329     0.07500
C4361       C  0.66215038  0.10878901  0.73106949    -0.22200
C4362       C  0.65333524  0.12213878  0.73309514     0.09800
C4363       C  0.64880673  0.13086222  0.72020441     0.10200
C4364       C  0.65331852  0.12607448  0.70548834    -0.17100
C4365       C  0.66245064  0.11289622  0.70340929    -0.27500
C4366       C  0.66668389  0.10395605  0.71636008     0.18500
C4367       C  0.64909936  0.12687511  0.74885646     0.12500
C4368       C  0.63945756  0.14535488  0.72202882    -0.11900
H4369       H  0.65011513  0.13294333  0.69558335     0.12800
C4370       C  0.67552828  0.08907438  0.71512929    -0.22700
H4371       H  0.66544199  0.10205376  0.74104395     0.08400
C4372       C  0.63557602  0.12145857  0.75596509     0.04800
C4373       C  0.63203601  0.12635016  0.77092418    -0.19900
C4374       C  0.64174580  0.13649835  0.77892791    -0.12200
C4375       C  0.65558165  0.14153648  0.77189641     0.13500
C4376       C  0.65892240  0.13683030  0.75683993    -0.22600
C4377       C  0.62488554  0.11059246  0.74771571    -0.05700
H4378       H  0.62150711  0.12240993  0.77632404     0.15000
C4379       C  0.66747772  0.15120967  0.78002040    -0.15900
H4380       H  0.66943554  0.14072749  0.75136260     0.09300
H4381       H  0.66886504  0.07968844  0.72069697     0.07200
H4382       H  0.68674849  0.09026778  0.72110741     0.08400
H4383       H  0.67767931  0.08549798  0.70310556     0.07400
H4384       H  0.64589625  0.15378406  0.72914926     0.02300
H4385       H  0.62835771  0.14265924  0.72772954     0.02800
H4386       H  0.63691697  0.15081639  0.71076219     0.06300
H4387       H  0.61478931  0.10749976  0.75490789     0.05300
H4388       H  0.63110318  0.09982390  0.74476093    -0.00500
H4389       H  0.62060671  0.11604421  0.73699429     0.01000
H4390       H  0.67880975  0.14533048  0.77945101     0.04600
H4391       H  0.66496768  0.15303621  0.79234539     0.06600
H4392       H  0.66844263  0.16257994  0.77425349     0.07500
loop_ 
_geom_bond_atom_site_label_1 
_geom_bond_atom_site_label_2 
_geom_bond_distance 
_geom_bond_site_symmetry_2 
_ccdc_geom_bond_type 
N1            N2   1.321       .  A
N1            C5   1.345       .  A
N1           Cu9   2.068       .  S
N2            C3   1.344       .  A
N2           Cu8   2.070       .  S
C3            C4   1.384       .  A
C3            H6   1.082       .  S
C4            C5   1.384       .  A
C4         C4374   1.479       .  S
C5            H7   1.082       .  S
Cu8          N11   2.070       .  S
Cu9          N19   2.068       .  S
Cu10         N12   2.079       .  S
Cu10         N18   2.079       .  S
N11          N12   1.322       .  A
N11          C15   1.344       .  A
N12          C13   1.346       .  A
C13          C14   1.385       .  A
C13          H16   1.082       .  S
C14          C15   1.382       .  A
C14        C4333   1.479       .  S
C15          H17   1.081       .  S
N18          N19   1.322       .  A
N18          C22   1.346       .  A
N19          C20   1.342       .  A
C20          C21   1.382       .  A
C20          H23   1.082       .  S
C21          C22   1.386       .  A
C21        C4310   1.479       .  S
C22          H24   1.082       .  S
N25          N26   1.321       .  A
N25          C29   1.345       .  A
N25         Cu33   2.074       .  S
N26          C27   1.344       .  A
N26         Cu32   2.064       .  S
C27          C28   1.383       .  A
C27          H30   1.081       .  S
C28          C29   1.384       .  A
C28        C4269   1.477       .  S
C29          H31   1.082       .  S
Cu32         N35   2.064       .  S
Cu33         N43   2.074       .  S
Cu34         N36   2.074       .  S
Cu34         N42   2.075       .  S
N35          N36   1.322       .  A
N35          C39   1.342       .  A
N36          C37   1.346       .  A
C37          C38   1.385       .  A
C37          H40   1.082       .  S
C38          C39   1.381       .  A
C38        C4237   1.476       .  S
C39          H41   1.082       .  S
N42          N43   1.323       .  A
N42          C46   1.344       .  A
N43          C44   1.345       .  A
C44          C45   1.384       .  A
C44          H47   1.082       .  S
C45          C46   1.384       .  A
C45        C4205   1.480       .  S
C46          H48   1.082       .  S
N49          N50   1.322       .  A
N49          C53   1.344       .  A
N49         Cu57   2.069       .  S
N50          C51   1.343       .  A
N50         Cu56   2.074       .  S
C51          C52   1.384       .  A
C51          H54   1.082       .  S
C52          C53   1.384       .  A
C52        C4173   1.479       .  S
C53          H55   1.080       .  S
Cu56         N59   2.074       .  S
Cu57         N67   2.069       .  S
Cu58         N60   2.065       .  S
Cu58         N66   2.065       .  S
N59          N60   1.320       .  A
N59          C63   1.345       .  A
N60          C61   1.343       .  A
C61          C62   1.384       .  A
C61          H64   1.082       .  S
C62          C63   1.387       .  A
C62        C4109   1.483       .  S
C63          H65   1.082       .  S
N66          N67   1.321       .  A
N66          C70   1.342       .  A
N67          C68   1.345       .  A
C68          C69   1.386       .  A
C68          H71   1.082       .  S
C69          C70   1.384       .  A
C69        C4141   1.480       .  S
C70          H72   1.082       .  S
N73          N74   1.322       .  A
N73          C77   1.343       .  A
N73         Cu81   2.065       .  S
N74          C75   1.344       .  A
N74         Cu80   2.070       .  S
C75          C76   1.383       .  A
C75          H78   1.082       .  S
C76          C77   1.381       .  A
C76        C4182   1.473       .  S
C77          H79   1.082       .  S
Cu80         N83   2.071       .  S
Cu81         N91   2.065       .  S
Cu82         N84   2.075       .  S
Cu82         N90   2.074       .  S
N83          N84   1.322       .  A
N83          C87   1.345       .  A
N84          C85   1.345       .  A
C85          C86   1.383       .  A
C85          H88   1.082       .  S
C86          C87   1.383       .  A
C86        C4077   1.477       .  S
C87          H89   1.082       .  S
N90          N91   1.321       .  A
N90          C94   1.345       .  A
N91          C92   1.343       .  A
C92          C93   1.383       .  A
C92          H95   1.082       .  S
C93          C94   1.385       .  A
C93        C4342   1.479       .  S
C94          H96   1.081       .  S
N97          N98   1.322       .  A
N97         C101   1.345       .  A
N97        Cu105   2.072       .  S
N98          C99   1.344       .  A
N98        Cu104   2.075       .  S
C99         C100   1.383       .  A
C99         H102   1.082       .  S
C100        C101   1.385       .  A
C100       C4150   1.478       .  S
C101        H103   1.082       .  S
Cu104       N107   2.075       .  S
Cu105       N115   2.072       .  S
Cu106       N108   2.069       .  S
Cu106       N114   2.068       .  S
N107        N108   1.321       .  A
N107        C111   1.346       .  A
N108        C109   1.344       .  A
C109        C110   1.385       .  A
C109        H112   1.082       .  S
C110        C111   1.386       .  A
C110       C4045   1.484       .  S
C111        H113   1.082       .  S
N114        N115   1.322       .  A
N114        C118   1.344       .  A
N115        C116   1.344       .  A
C116        C117   1.383       .  A
C116        H119   1.082       .  S
C117        C118   1.381       .  A
C117       C4246   1.475       .  S
C118        H120   1.082       .  S
N121        N122   1.321       .  A
N121        C125   1.344       .  A
N121       Cu129   2.069       .  S
N122        C123   1.345       .  A
N122       Cu128   2.071       .  S
C123        C124   1.384       .  A
C123        H126   1.082       .  S
C124        C125   1.384       .  A
C124       C4365   1.477       .  S
C125        H127   1.082       .  S
Cu128       N131   2.072       .  S
Cu129       N139   2.069       .  S
Cu130       N132   2.088       .  S
Cu130       N138   2.088       .  S
N131        N132   1.323       .  A
N131        C135   1.345       .  A
N132        C133   1.347       .  A
C133        C134   1.386       .  A
C133        H136   1.082       .  S
C134        C135   1.382       .  A
C134       C4278   1.481       .  S
C135        H137   1.082       .  S
N138        N139   1.322       .  A
N138        C142   1.348       .  A
N139        C140   1.343       .  A
C140        C141   1.383       .  A
C140        H143   1.082       .  S
C141        C142   1.387       .  A
C141       C4013   1.483       .  S
C142        H144   1.082       .  S
N145        N146   1.321       .  A
N145        C149   1.343       .  A
N145       Cu153   2.066       .  S
N146        C147   1.343       .  A
N146       Cu152   2.062       .  S
C147        C148   1.382       .  A
C147        H150   1.082       .  S
C148        C149   1.384       .  A
C148       C3958   1.475       .  S
C149        H151   1.082       .  S
Cu152       N155   2.062       .  S
Cu153       N163   2.067       .  S
Cu154       N156   2.070       .  S
Cu154       N162   2.070       .  S
N155        N156   1.321       .  A
N155        C159   1.342       .  A
N156        C157   1.345       .  A
C157        C158   1.384       .  A
C157        H160   1.081       .  S
C158        C159   1.381       .  A
C158       C3917   1.475       .  S
C159        H161   1.082       .  S
N162        N163   1.321       .  A
N162        C166   1.344       .  A
N163        C164   1.344       .  A
C164        C165   1.384       .  A
C164        H167   1.080       .  S
C165        C166   1.384       .  A
C165       C3981   1.479       .  S
C166        H168   1.082       .  S
N169        N170   1.320       .  A
N169        C173   1.345       .  A
N169       Cu177   2.074       .  S
N170        C171   1.340       .  A
N170       Cu176   2.064       .  S
C171        C172   1.387       .  A
C171        H174   1.081       .  S
C172        C173   1.391       .  A
C172       C3894   1.492       .  S
C173        H175   1.077       .  S
Cu176       N179   2.063       .  S
Cu177       N187   2.074       .  S
Cu178       N180   2.059       .  S
Cu178       N186   2.060       .  S
N179        N180   1.320       .  A
N179        C183   1.343       .  A
N180        C181   1.343       .  A
C181        C182   1.382       .  A
C181        H184   1.082       .  S
C182        C183   1.383       .  A
C182       C3862   1.473       .  S
C183        H185   1.082       .  S
N186        N187   1.322       .  A
N186        C190   1.341       .  A
N187        C188   1.346       .  A
C188        C189   1.385       .  A
C188        H191   1.081       .  S
C189        C190   1.381       .  A
C189       C3821   1.477       .  S
C190        H192   1.082       .  S
N193        N194   1.322       .  A
N193        C197   1.347       .  A
N193       Cu201   2.080       .  S
N194        C195   1.343       .  A
N194       Cu200   2.064       .  S
C195        C196   1.382       .  A
C195        H198   1.082       .  S
C196        C197   1.386       .  A
C196       C3789   1.478       .  S
C197        H199   1.082       .  S
Cu200       N203   2.064       .  S
Cu201       N211   2.080       .  S
Cu202       N204   2.073       .  S
Cu202       N210   2.073       .  S
N203        N204   1.321       .  A
N203        C207   1.343       .  A
N204        C205   1.346       .  A
C205        C206   1.385       .  A
C205        H208   1.082       .  S
C206        C207   1.382       .  A
C206       C3757   1.477       .  S
C207        H209   1.082       .  S
N210        N211   1.323       .  A
N210        C214   1.344       .  A
N211        C212   1.346       .  A
C212        C213   1.384       .  A
C212        H215   1.082       .  S
C213        C214   1.383       .  A
C213       C3725   1.479       .  S
C214        H216   1.082       .  S
N217        N218   1.322       .  A
N217        C221   1.341       .  A
N217       Cu225   2.059       .  S
N218        C219   1.345       .  A
N218       Cu224   2.071       .  S
C219        C220   1.385       .  A
C219        H222   1.082       .  S
C220        C221   1.380       .  A
C220       C3949   1.477       .  S
C221        H223   1.082       .  S
Cu224       N227   2.072       .  S
Cu225       N235   2.059       .  S
Cu226       N228   2.068       .  S
Cu226       N234   2.067       .  S
N227        N228   1.322       .  A
N227        C231   1.345       .  A
N228        C229   1.342       .  A
C229        C230   1.382       .  A
C229        H232   1.082       .  S
C230        C231   1.385       .  A
C230       C3702   1.478       .  S
C231        H233   1.082       .  S
N234        N235   1.320       .  A
N234        C238   1.345       .  A
N235        C236   1.342       .  A
C236        C237   1.382       .  A
C236        H239   1.082       .  S
C237        C238   1.385       .  A
C237       C3766   1.476       .  S
C238        H240   1.082       .  S
N241        N242   1.320       .  A
N241        C245   1.344       .  A
N241       Cu249   2.067       .  S
N242        C243   1.342       .  A
N242       Cu248   2.069       .  S
C243        C244   1.387       .  A
C243        H246   1.082       .  S
C244        C245   1.387       .  A
C244       C3885   1.486       .  S
C245        H247   1.078       .  S
Cu248       N251   2.070       .  S
Cu249       N259   2.067       .  S
Cu250       N252   2.075       .  S
Cu250       N258   2.075       .  S
N251        N252   1.322       .  A
N251        C255   1.345       .  A
N252        C253   1.345       .  A
C253        C254   1.385       .  A
C253        H256   1.082       .  S
C254        C255   1.383       .  A
C254       C3798   1.480       .  S
C255        H257   1.082       .  S
N258        N259   1.322       .  A
N258        C262   1.344       .  A
N259        C260   1.344       .  A
C260        C261   1.383       .  A
C260        H263   1.081       .  S
C261        C262   1.383       .  A
C261       C3661   1.477       .  S
C262        H264   1.082       .  S
N265        N266   1.322       .  A
N265        C269   1.344       .  A
N265       Cu273   2.072       .  S
N266        C267   1.343       .  A
N266       Cu272   2.063       .  S
C267        C268   1.382       .  A
C267        H270   1.082       .  S
C268        C269   1.385       .  A
C268       C3990   1.477       .  S
C269        H271   1.082       .  S
Cu272       N275   2.063       .  S
Cu273       N283   2.072       .  S
Cu274       N276   2.064       .  S
Cu274       N282   2.064       .  S
N275        N276   1.321       .  A
N275        C279   1.342       .  A
N276        C277   1.344       .  A
C277        C278   1.383       .  A
C277        H280   1.082       .  S
C278        C279   1.382       .  A
C278       C3638   1.473       .  S
C279        H281   1.082       .  S
N282        N283   1.322       .  A
N282        C286   1.341       .  A
N283        C284   1.345       .  A
C284        C285   1.384       .  A
C284        H287   1.082       .  S
C285        C286   1.382       .  A
C285       C3853   1.475       .  S
C286        H288   1.082       .  S
N289        N290   1.322       .  A
N289        C293   1.343       .  A
N289       Cu297   2.066       .  S
N290        C291   1.346       .  A
N290       Cu296   2.075       .  S
C291        C292   1.383       .  A
C291        H294   1.082       .  S
C292        C293   1.379       .  A
C292       C3597   1.472       .  S
C293        H295   1.082       .  S
Cu296       N299   2.076       .  S
Cu297       N307   2.066       .  S
Cu298       N300   2.079       .  S
Cu298       N306   2.078       .  S
N299        N300   1.323       .  A
N299        C303   1.345       .  A
N300        C301   1.346       .  A
C301        C302   1.385       .  A
C301        H304   1.081       .  S
C302        C303   1.384       .  A
C302       C3533   1.481       .  S
C303        H305   1.082       .  S
N306        N307   1.322       .  A
N306        C310   1.346       .  A
N307        C308   1.343       .  A
C308        C309   1.382       .  A
C308        H311   1.082       .  S
C309        C310   1.384       .  A
C309       C3574   1.477       .  S
C310        H312   1.082       .  S
N313        N314   1.320       .  A
N313        C317   1.343       .  A
N313       Cu321   2.069       .  S
N314        C315   1.344       .  A
N314       Cu320   2.064       .  S
C315        C316   1.384       .  A
C315        H318   1.082       .  S
C316        C317   1.384       .  A
C316       C3469   1.477       .  S
C317        H319   1.082       .  S
Cu320       N323   2.064       .  S
Cu321       N331   2.069       .  S
Cu322       N324   2.088       .  S
Cu322       N330   2.088       .  S
N323        N324   1.323       .  A
N323        C327   1.342       .  A
N324        C325   1.347       .  A
C325        C326   1.387       .  A
C325        H328   1.082       .  S
C326        C327   1.382       .  A
C326       C3437   1.482       .  S
C327        H329   1.082       .  S
N330        N331   1.322       .  A
N330        C334   1.348       .  A
N331        C332   1.343       .  A
C332        C333   1.383       .  A
C332        H335   1.082       .  S
C333        C334   1.387       .  A
C333       C3501   1.484       .  S
C334        H336   1.082       .  S
N337        N338   1.322       .  A
N337        C341   1.347       .  A
N337       Cu345   2.076       .  S
N338        C339   1.342       .  A
N338       Cu344   2.065       .  S
C339        C340   1.381       .  A
C339        H342   1.082       .  S
C340        C341   1.384       .  A
C340       C3414   1.475       .  S
C341        H343   1.082       .  S
Cu344       N347   2.065       .  S
Cu345       N355   2.076       .  S
Cu346       N348   2.067       .  S
Cu346       N354   2.068       .  S
N347        N348   1.321       .  A
N347        C351   1.343       .  A
N348        C349   1.345       .  A
C349        C350   1.383       .  A
C349        H352   1.082       .  S
C350        C351   1.383       .  A
C350       C3373   1.477       .  S
C351        H353   1.081       .  S
N354        N355   1.323       .  A
N354        C358   1.344       .  A
N355        C356   1.344       .  A
C356        C357   1.383       .  A
C356        H359   1.082       .  S
C357        C358   1.383       .  A
C357       C3341   1.477       .  S
C358        H360   1.082       .  S
N361        N362   1.321       .  A
N361        C365   1.342       .  A
N361       Cu369   2.059       .  S
N362        C363   1.345       .  A
N362       Cu368   2.074       .  S
C363        C364   1.385       .  A
C363        H366   1.081       .  S
C364        C365   1.380       .  A
C364       C3309   1.475       .  S
C365        H367   1.082       .  S
Cu368       N371   2.074       .  S
Cu369       N379   2.058       .  S
Cu370       N372   2.074       .  S
Cu370       N378   2.074       .  S
N371        N372   1.323       .  A
N371        C375   1.345       .  A
N372        C373   1.344       .  A
C373        C374   1.382       .  A
C373        H376   1.082       .  S
C374        C375   1.384       .  A
C374       C3565   1.477       .  S
C375        H377   1.082       .  S
N378        N379   1.321       .  A
N378        C382   1.345       .  A
N379        C380   1.342       .  A
C380        C381   1.381       .  A
C380        H383   1.082       .  S
C381        C382   1.385       .  A
C381       C3382   1.474       .  S
C382        H384   1.082       .  S
N385        N386   1.323       .  A
N385        C389   1.344       .  A
N385       Cu393   2.068       .  S
N386        C387   1.345       .  A
N386       Cu392   2.082       .  S
C387        C388   1.385       .  A
C387        H390   1.082       .  S
C388        C389   1.383       .  A
C388       C3277   1.481       .  S
C389        H391   1.082       .  S
Cu392       N395   2.082       .  S
Cu393       N403   2.068       .  S
Cu394       N396   2.077       .  S
Cu394       N402   2.076       .  S
N395        N396   1.322       .  A
N395        C399   1.347       .  A
N396        C397   1.345       .  A
C397        C398   1.385       .  A
C397        H400   1.082       .  S
C398        C399   1.386       .  A
C398       C3510   1.485       .  S
C399        H401   1.082       .  S
N402        N403   1.322       .  A
N402        C406   1.344       .  A
N403        C404   1.346       .  A
C404        C405   1.384       .  A
C404        H407   1.082       .  S
C405        C406   1.383       .  A
C405       C3405   1.478       .  S
C406        H408   1.082       .  S
N409        N410   1.321       .  A
N409        C413   1.343       .  A
N409       Cu417   2.070       .  S
N410        C411   1.344       .  A
N410       Cu416   2.069       .  S
C411        C412   1.385       .  A
C411        H414   1.080       .  S
C412        C413   1.385       .  A
C412       C3606   1.482       .  S
C413        H415   1.082       .  S
Cu416       N419   2.069       .  S
Cu417       N427   2.070       .  S
Cu418       N420   2.069       .  S
Cu418       N426   2.069       .  S
N419        N420   1.322       .  A
N419        C423   1.344       .  A
N420        C421   1.344       .  A
C421        C422   1.384       .  A
C421        H424   1.082       .  S
C422        C423   1.383       .  A
C422       C3245   1.478       .  S
C423        H425   1.082       .  S
N426        N427   1.322       .  A
N426        C430   1.344       .  A
N427        C428   1.344       .  A
C428        C429   1.384       .  A
C428        H431   1.081       .  S
C429        C430   1.383       .  A
C429       C3478   1.477       .  S
C430        H432   1.082       .  S
N433        N434   1.322       .  A
N433        C437   1.345       .  A
N433       Cu441   2.076       .  S
N434        C435   1.345       .  A
N434       Cu440   2.073       .  S
C435        C436   1.384       .  A
C435        H438   1.082       .  S
C436        C437   1.384       .  A
C436       C3213   1.480       .  S
C437        H439   1.082       .  S
Cu440       N443   2.073       .  S
Cu441       N451   2.076       .  S
Cu442       N444   2.073       .  S
Cu442       N450   2.073       .  S
N443        N444   1.322       .  A
N443        C447   1.345       .  A
N444        C445   1.345       .  A
C445        C446   1.385       .  A
C445        H448   1.082       .  S
C446        C447   1.384       .  A
C446       C3149   1.480       .  S
C447        H449   1.082       .  S
N450        N451   1.323       .  A
N450        C454   1.345       .  A
N451        C452   1.345       .  A
C452        C453   1.383       .  A
C452        H455   1.082       .  S
C453        C454   1.383       .  A
C453       C3181   1.477       .  S
C454        H456   1.082       .  S
N457        N458   1.321       .  A
N457        C461   1.343       .  A
N457       Cu465   2.069       .  S
N458        C459   1.344       .  A
N458       Cu464   2.062       .  S
C459        C460   1.380       .  A
C459        H462   1.082       .  S
C460        C461   1.383       .  A
C460       C3085   1.473       .  S
C461        H463   1.082       .  S
Cu464       N467   2.062       .  S
Cu465       N475   2.070       .  S
Cu466       N468   2.076       .  S
Cu466       N474   2.076       .  S
N467        N468   1.320       .  A
N467        C471   1.341       .  A
N468        C469   1.345       .  A
C469        C470   1.389       .  A
C469        H472   1.079       .  S
C470        C471   1.384       .  A
C470       C3053   1.486       .  S
C471        H473   1.082       .  S
N474        N475   1.323       .  A
N474        C478   1.345       .  A
N475        C476   1.344       .  A
C476        C477   1.381       .  A
C476        H479   1.082       .  S
C477        C478   1.384       .  A
C477       C3126   1.477       .  S
C478        H480   1.082       .  S
N481        N482   1.322       .  A
N481        C485   1.346       .  A
N481       Cu489   2.075       .  S
N482        C483   1.343       .  A
N482       Cu488   2.069       .  S
C483        C484   1.384       .  A
C483        H486   1.082       .  S
C484        C485   1.386       .  A
C484       C3030   1.480       .  S
C485        H487   1.082       .  S
Cu488       N491   2.069       .  S
Cu489       N499   2.075       .  S
Cu490       N492   2.078       .  S
Cu490       N498   2.078       .  S
N491        N492   1.322       .  A
N491        C495   1.344       .  A
N492        C493   1.346       .  A
C493        C494   1.384       .  A
C493        H496   1.082       .  S
C494        C495   1.383       .  A
C494       C2989   1.479       .  S
C495        H497   1.081       .  S
N498        N499   1.323       .  A
N498        C502   1.346       .  A
N499        C500   1.345       .  A
C500        C501   1.384       .  A
C500        H503   1.082       .  S
C501        C502   1.385       .  A
C501       C2957   1.482       .  S
C502        H504   1.082       .  S
N505        N506   1.321       .  A
N505        C509   1.342       .  A
N505       Cu513   2.064       .  S
N506        C507   1.346       .  A
N506       Cu512   2.077       .  S
C507        C508   1.387       .  A
C507        H510   1.080       .  S
C508        C509   1.382       .  A
C508       C2925   1.481       .  S
C509        H511   1.082       .  S
Cu512       N515   2.077       .  S
Cu513       N523   2.064       .  S
Cu514       N516   2.075       .  S
Cu514       N522   2.075       .  S
N515        N516   1.323       .  A
N515        C519   1.346       .  A
N516        C517   1.344       .  A
C517        C518   1.383       .  A
C517        H520   1.082       .  S
C518        C519   1.383       .  A
C518       C3190   1.477       .  S
C519        H521   1.082       .  S
N522        N523   1.321       .  A
N522        C526   1.345       .  A
N523        C524   1.344       .  A
C524        C525   1.382       .  A
C524        H527   1.082       .  S
C525        C526   1.386       .  A
C525       C3021   1.479       .  S
C526        H528   1.082       .  S
N529        N530   1.321       .  A
N529        C533   1.343       .  A
N529       Cu537   2.067       .  S
N530        C531   1.345       .  A
N530       Cu536   2.074       .  S
C531        C532   1.386       .  A
C531        H534   1.082       .  S
C532        C533   1.383       .  A
C532       C2893   1.480       .  S
C533        H535   1.082       .  S
Cu536       N539   2.075       .  S
Cu537       N547   2.067       .  S
Cu538       N540   2.077       .  S
Cu538       N546   2.077       .  S
N539        N540   1.322       .  A
N539        C543   1.344       .  A
N540        C541   1.345       .  A
C541        C542   1.385       .  A
C541        H544   1.082       .  S
C542        C543   1.385       .  A
C542       C3117   1.484       .  S
C543        H545   1.082       .  S
N546        N547   1.321       .  A
N546        C550   1.344       .  A
N547        C548   1.344       .  A
C548        C549   1.385       .  A
C548        H551   1.080       .  S
C549        C550   1.386       .  A
C549       C2998   1.483       .  S
C550        H552   1.082       .  S
N553        N554   1.323       .  A
N553        C557   1.344       .  A
N553       Cu561   2.077       .  S
N554        C555   1.346       .  A
N554       Cu560   2.078       .  S
C555        C556   1.386       .  A
C555        H558   1.082       .  S
C556        C557   1.385       .  A
C556       C3222   1.484       .  S
C557        H559   1.082       .  S
Cu560       N563   2.078       .  S
Cu561       N571   2.077       .  S
Cu562       N564   2.060       .  S
Cu562       N570   2.060       .  S
N563        N564   1.321       .  A
N563        C567   1.345       .  A
N564        C565   1.342       .  A
C565        C566   1.381       .  A
C565        H568   1.082       .  S
C566        C567   1.386       .  A
C566       C2861   1.478       .  S
C567        H569   1.081       .  S
N570        N571   1.321       .  A
N570        C574   1.343       .  A
N571        C572   1.345       .  A
C572        C573   1.385       .  A
C572        H575   1.082       .  S
C573        C574   1.382       .  A
C573       C3094   1.477       .  S
C574        H576   1.081       .  S
N577        N578   1.322       .  A
N577        C581   1.345       .  A
N577       Cu585   2.070       .  S
N578        C579   1.345       .  A
N578       Cu584   2.080       .  S
C579        C580   1.385       .  A
C579        H582   1.082       .  S
C580        C581   1.385       .  A
C580       C2797   1.483       .  S
C581        H583   1.082       .  S
Cu584       N587   2.080       .  S
Cu585       N595   2.070       .  S
Cu586       N588   2.068       .  S
Cu586       N594   2.067       .  S
N587        N588   1.322       .  A
N587        C591   1.346       .  A
N588        C589   1.344       .  A
C589        C590   1.383       .  A
C589        H592   1.082       .  S
C590        C591   1.386       .  A
C590       C2838   1.481       .  S
C591        H593   1.082       .  S
N594        N595   1.322       .  A
N594        C598   1.344       .  A
N595        C596   1.344       .  A
C596        C597   1.382       .  A
C596        H599   1.082       .  S
C597        C598   1.382       .  A
C597       C2774   1.474       .  S
C598        H600   1.082       .  S
N601        N602   1.322       .  A
N601        C605   1.343       .  A
N601       Cu609   2.067       .  S
N602        C603   1.344       .  A
N602       Cu608   2.072       .  S
C603        C604   1.384       .  A
C603        H606   1.081       .  S
C604        C605   1.382       .  A
C604       C2701   1.476       .  S
C605        H607   1.082       .  S
Cu608       N611   2.073       .  S
Cu609       N619   2.067       .  S
Cu610       N612   2.081       .  S
Cu610       N618   2.080       .  S
N611        N612   1.322       .  A
N611        C615   1.345       .  A
N612        C613   1.346       .  A
C613        C614   1.386       .  A
C613        H616   1.082       .  S
C614        C615   1.385       .  A
C614       C2678   1.483       .  S
C615        H617   1.082       .  S
N618        N619   1.322       .  A
N618        C622   1.345       .  A
N619        C620   1.345       .  A
C620        C621   1.382       .  A
C620        H623   1.082       .  S
C621        C622   1.384       .  A
C621       C2733   1.476       .  S
C622        H624   1.082       .  S
N625        N626   1.322       .  A
N625        C629   1.342       .  A
N625       Cu633   2.071       .  S
N626        C627   1.345       .  A
N626       Cu632   2.070       .  S
C627        C628   1.384       .  A
C627        H630   1.081       .  S
C628        C629   1.383       .  A
C628       C2614   1.477       .  S
C629        H631   1.082       .  S
Cu632       N635   2.070       .  S
Cu633       N643   2.071       .  S
Cu634       N636   2.066       .  S
Cu634       N642   2.066       .  S
N635        N636   1.322       .  A
N635        C639   1.344       .  A
N636        C637   1.343       .  A
C637        C638   1.382       .  A
C637        H640   1.082       .  S
C638        C639   1.384       .  A
C638       C2573   1.476       .  S
C639        H641   1.082       .  S
N642        N643   1.321       .  A
N642        C646   1.343       .  A
N643        C644   1.346       .  A
C644        C645   1.386       .  A
C644        H647   1.082       .  S
C645        C646   1.383       .  A
C645       C2637   1.479       .  S
C646        H648   1.082       .  S
N649        N650   1.322       .  A
N649        C653   1.344       .  A
N649       Cu657   2.077       .  S
N650        C651   1.346       .  A
N650       Cu656   2.073       .  S
C651        C652   1.384       .  A
C651        H654   1.082       .  S
C652        C653   1.385       .  A
C652       C2646   1.481       .  S
C653        H655   1.081       .  S
Cu656       N659   2.073       .  S
Cu657       N667   2.077       .  S
Cu658       N660   2.068       .  S
Cu658       N666   2.068       .  S
N659        N660   1.322       .  A
N659        C663   1.344       .  A
N660        C661   1.344       .  A
C661        C662   1.382       .  A
C661        H664   1.082       .  S
C662        C663   1.383       .  A
C662       C2541   1.475       .  S
C663        H665   1.082       .  S
N666        N667   1.322       .  A
N666        C670   1.345       .  A
N667        C668   1.345       .  A
C668        C669   1.385       .  A
C668        H671   1.082       .  S
C669        C670   1.382       .  A
C669       C2806   1.479       .  S
C670        H672   1.082       .  S
N673        N674   1.321       .  A
N673        C677   1.344       .  A
N673       Cu681   2.065       .  S
N674        C675   1.343       .  A
N674       Cu680   2.065       .  S
C675        C676   1.382       .  A
C675        H678   1.082       .  S
C676        C677   1.383       .  A
C676       C2605   1.474       .  S
C677        H679   1.081       .  S
Cu680       N683   2.065       .  S
Cu681       N691   2.065       .  S
Cu682       N684   2.069       .  S
Cu682       N690   2.069       .  S
N683        N684   1.321       .  A
N683        C687   1.344       .  A
N684        C685   1.343       .  A
C685        C686   1.384       .  A
C685        H688   1.082       .  S
C686        C687   1.384       .  A
C686       C2509   1.478       .  S
C687        H689   1.082       .  S
N690        N691   1.322       .  A
N690        C694   1.344       .  A
N691        C692   1.343       .  A
C692        C693   1.380       .  A
C692        H695   1.082       .  S
C693        C694   1.382       .  A
C693       C2710   1.472       .  S
C694        H696   1.081       .  S
N697        N698   1.323       .  A
N697        C701   1.343       .  A
N697       Cu705   2.065       .  S
N698        C699   1.345       .  A
N698       Cu704   2.076       .  S
C699        C700   1.384       .  A
C699        H702   1.082       .  S
C700        C701   1.380       .  A
C700       C2477   1.474       .  S
C701        H703   1.082       .  S
Cu704       N707   2.076       .  S
Cu705       N715   2.065       .  S
Cu706       N708   2.076       .  S
Cu706       N714   2.076       .  S
N707        N708   1.322       .  A
N707        C711   1.346       .  A
N708        C709   1.344       .  A
C709        C710   1.384       .  A
C709        H712   1.082       .  S
C710        C711   1.385       .  A
C710       C2742   1.480       .  S
C711        H713   1.082       .  S
N714        N715   1.321       .  A
N714        C718   1.345       .  A
N715        C716   1.344       .  A
C716        C717   1.384       .  A
C716        H719   1.082       .  S
C717        C718   1.386       .  A
C717       C2829   1.482       .  S
C718        H720   1.080       .  S
N721        N722   1.322       .  A
N721        C725   1.342       .  A
N721       Cu729   2.063       .  S
N722        C723   1.345       .  A
N722       Cu728   2.070       .  S
C723        C724   1.383       .  A
C723        H726   1.082       .  S
C724        C725   1.382       .  A
C724       C2413   1.475       .  S
C725        H727   1.082       .  S
Cu728       N731   2.070       .  S
Cu729       N739   2.063       .  S
Cu730       N732   2.074       .  S
Cu730       N738   2.074       .  S
N731        N732   1.323       .  A
N731        C735   1.345       .  A
N732        C733   1.344       .  A
C733        C734   1.382       .  A
C733        H736   1.082       .  S
C734        C735   1.383       .  A
C734       C2390   1.476       .  S
C735        H737   1.081       .  S
N738        N739   1.321       .  A
N738        C742   1.346       .  A
N739        C740   1.343       .  A
C740        C741   1.382       .  A
C740        H743   1.082       .  S
C741        C742   1.384       .  A
C741       C2454   1.476       .  S
C742        H744   1.082       .  S
N745        N746   1.323       .  A
N745        C749   1.343       .  A
N745       Cu753   2.072       .  S
N746        C747   1.345       .  A
N746       Cu752   2.072       .  S
C747        C748   1.383       .  A
C747        H750   1.081       .  S
C748        C749   1.382       .  A
C748       C2317   1.476       .  S
C749        H751   1.082       .  S
Cu752       N755   2.071       .  S
Cu753       N763   2.072       .  S
Cu754       N756   2.063       .  S
Cu754       N762   2.063       .  S
N755        N756   1.321       .  A
N755        C759   1.345       .  A
N756        C757   1.342       .  A
C757        C758   1.382       .  A
C757        H760   1.082       .  S
C758        C759   1.385       .  A
C758       C2285   1.477       .  S
C759        H761   1.082       .  S
N762        N763   1.321       .  A
N762        C766   1.343       .  A
N763        C764   1.345       .  A
C764        C765   1.385       .  A
C764        H767   1.082       .  S
C765        C766   1.383       .  A
C765       C2349   1.477       .  S
C766        H768   1.082       .  S
N769        N770   1.321       .  A
N769        C773   1.344       .  A
N769       Cu777   2.065       .  S
N770        C771   1.342       .  A
N770       Cu776   2.058       .  S
C771        C772   1.381       .  A
C771        H774   1.082       .  S
C772        C773   1.382       .  A
C772       C2253   1.471       .  S
C773        H775   1.082       .  S
Cu776       N779   2.059       .  S
Cu777       N787   2.066       .  S
Cu778       N780   2.076       .  S
Cu778       N786   2.076       .  S
N779        N780   1.322       .  A
N779        C783   1.342       .  A
N780        C781   1.345       .  A
C781        C782   1.385       .  A
C781        H784   1.082       .  S
C782        C783   1.381       .  A
C782       C2230   1.476       .  S
C783        H785   1.082       .  S
N786        N787   1.322       .  A
N786        C790   1.346       .  A
N787        C788   1.342       .  A
C788        C789   1.382       .  A
C788        H791   1.082       .  S
C789        C790   1.386       .  A
C789       C2189   1.479       .  S
C790        H792   1.082       .  S
N793        N794   1.322       .  A
N793        C797   1.344       .  A
N793       Cu801   2.074       .  S
N794        C795   1.345       .  A
N794       Cu800   2.073       .  S
C795        C796   1.383       .  A
C795        H798   1.081       .  S
C796        C797   1.383       .  A
C796       C2445   1.478       .  S
C797        H799   1.082       .  S
Cu800       N803   2.072       .  S
Cu801       N811   2.073       .  S
Cu802       N804   2.053       .  S
Cu802       N810   2.053       .  S
N803        N804   1.321       .  A
N803        C807   1.345       .  A
N804        C805   1.341       .  A
C805        C806   1.380       .  A
C805        H808   1.082       .  S
C806        C807   1.384       .  A
C806       C2157   1.472       .  S
C807        H809   1.082       .  S
N810        N811   1.321       .  A
N810        C814   1.342       .  A
N811        C812   1.343       .  A
C812        C813   1.384       .  A
C812        H815   1.082       .  S
C813        C814   1.380       .  A
C813       C2262   1.472       .  S
C814        H816   1.082       .  S
N817        N818   1.322       .  A
N817        C821   1.344       .  A
N817       Cu825   2.068       .  S
N818        C819   1.345       .  A
N818       Cu824   2.073       .  S
C819        C820   1.383       .  A
C819        H822   1.082       .  S
C820        C821   1.381       .  A
C820       C2358   1.475       .  S
C821        H823   1.082       .  S
Cu824       N827   2.074       .  S
Cu825       N835   2.068       .  S
Cu826       N828   2.075       .  S
Cu826       N834   2.074       .  S
N827        N828   1.322       .  A
N827        C831   1.346       .  A
N828        C829   1.344       .  A
C829        C830   1.385       .  A
C829        H832   1.082       .  S
C830        C831   1.386       .  A
C830       C2125   1.483       .  S
C831        H833   1.080       .  S
N834        N835   1.322       .  A
N834        C838   1.345       .  A
N835        C836   1.343       .  A
C836        C837   1.383       .  A
C836        H839   1.082       .  S
C837        C838   1.384       .  A
C837       C2221   1.478       .  S
C838        H840   1.082       .  S
N841        N842   1.320       .  A
N841        C845   1.343       .  A
N841       Cu849   2.062       .  S
N842        C843   1.344       .  A
N842       Cu848   2.065       .  S
C843        C844   1.383       .  A
C843        H846   1.081       .  S
C844        C845   1.383       .  A
C844       C2326   1.475       .  S
C845        H847   1.081       .  S
Cu848       N851   2.066       .  S
Cu849       N859   2.061       .  S
Cu850       N852   2.070       .  S
Cu850       N858   2.070       .  S
N851        N852   1.323       .  A
N851        C855   1.343       .  A
N852        C853   1.343       .  A
C853        C854   1.383       .  A
C853        H856   1.082       .  S
C854        C855   1.380       .  A
C854       C2093   1.473       .  S
C855        H857   1.082       .  S
N858        N859   1.321       .  A
N858        C862   1.346       .  A
N859        C860   1.341       .  A
C860        C861   1.382       .  A
C860        H863   1.082       .  S
C861        C862   1.385       .  A
C861       C2422   1.477       .  S
C862        H864   1.082       .  S
N865        N866   1.322       .  A
N865        C869   1.345       .  A
N865       Cu873   2.075       .  S
N866        C867   1.343       .  A
N866       Cu872   2.059       .  S
C867        C868   1.381       .  A
C867        H870   1.082       .  S
C868        C869   1.382       .  A
C868       C2029   1.473       .  S
C869        H871   1.082       .  S
Cu872       N875   2.060       .  S
Cu873       N883   2.076       .  S
Cu874       N876   2.078       .  S
Cu874       N882   2.078       .  S
N875        N876   1.321       .  A
N875        C879   1.343       .  A
N876        C877   1.345       .  A
C877        C878   1.386       .  A
C877        H880   1.082       .  S
C878        C879   1.381       .  A
C878       C1997   1.477       .  S
C879        H881   1.082       .  S
N882        N883   1.323       .  A
N882        C886   1.345       .  A
N883        C884   1.346       .  A
C884        C885   1.384       .  A
C884        H887   1.082       .  S
C885        C886   1.385       .  A
C885       C2061   1.482       .  S
C886        H888   1.082       .  S
N889        N890   1.322       .  A
N889        C893   1.346       .  A
N889       Cu897   2.079       .  S
N890        C891   1.344       .  A
N890       Cu896   2.073       .  S
C891        C892   1.383       .  A
C891        H894   1.082       .  S
C892        C893   1.386       .  A
C892       C1965   1.482       .  S
C893        H895   1.081       .  S
Cu896       N899   2.073       .  S
Cu897       N907   2.079       .  S
Cu898       N900   2.069       .  S
Cu898       N906   2.070       .  S
N899        N900   1.322       .  A
N899        C903   1.345       .  A
N900        C901   1.344       .  A
C901        C902   1.381       .  A
C901        H904   1.082       .  S
C902        C903   1.383       .  A
C902       C1933   1.475       .  S
C903        H905   1.082       .  S
N906        N907   1.322       .  A
N906        C910   1.344       .  A
N907        C908   1.346       .  A
C908        C909   1.386       .  A
C908        H911   1.082       .  S
C909        C910   1.384       .  A
C909       C1901   1.481       .  S
C910        H912   1.082       .  S
N913        N914   1.321       .  A
N913        C917   1.344       .  A
N913       Cu921   2.067       .  S
N914        C915   1.345       .  A
N914       Cu920   2.074       .  S
C915        C916   1.385       .  A
C915        H918   1.081       .  S
C916        C917   1.383       .  A
C916       C1846   1.479       .  S
C917        H919   1.082       .  S
Cu920       N923   2.075       .  S
Cu921       N931   2.067       .  S
Cu922       N924   2.078       .  S
Cu922       N930   2.078       .  S
N923        N924   1.323       .  A
N923        C927   1.345       .  A
N924        C925   1.346       .  A
C925        C926   1.384       .  A
C925        H928   1.082       .  S
C926        C927   1.382       .  A
C926       C1869   1.479       .  S
C927        H929   1.082       .  S
N930        N931   1.322       .  A
N930        C934   1.346       .  A
N931        C932   1.343       .  A
C932        C933   1.383       .  A
C932        H935   1.082       .  S
C933        C934   1.386       .  A
C933       C1814   1.479       .  S
C934        H936   1.082       .  S
N937        N938   1.322       .  A
N937        C941   1.343       .  A
N937       Cu945   2.068       .  S
N938        C939   1.347       .  A
N938       Cu944   2.076       .  S
C939        C940   1.384       .  A
C939        H942   1.082       .  S
C940        C941   1.383       .  A
C940       C2070   1.479       .  S
C941        H943   1.082       .  S
Cu944       N947   2.076       .  S
Cu945       N955   2.068       .  S
Cu946       N948   2.078       .  S
Cu946       N954   2.078       .  S
N947        N948   1.323       .  A
N947        C951   1.344       .  A
N948        C949   1.346       .  A
C949        C950   1.384       .  A
C949        H952   1.082       .  S
C950        C951   1.383       .  A
C950       C1773   1.479       .  S
C951        H953   1.082       .  S
N954        N955   1.322       .  A
N954        C958   1.345       .  A
N955        C956   1.344       .  A
C956        C957   1.384       .  A
C956        H959   1.082       .  S
C957        C958   1.386       .  A
C957       C1878   1.481       .  S
C958        H960   1.082       .  S
N961        N962   1.322       .  A
N961        C965   1.347       .  A
N961       Cu969   2.077       .  S
N962        C963   1.344       .  A
N962       Cu968   2.073       .  S
C963        C964   1.383       .  A
C963        H966   1.082       .  S
C964        C965   1.386       .  A
C964       C1837   1.480       .  S
C965        H967   1.082       .  S
Cu968       N971   2.073       .  S
Cu969       N979   2.078       .  S
Cu970       N972   2.077       .  S
Cu970       N978   2.078       .  S
N971        N972   1.321       .  A
N971        C975   1.343       .  A
N972        C973   1.347       .  A
C973        C974   1.388       .  A
C973        H976   1.082       .  S
C974        C975   1.385       .  A
C974       C1974   1.486       .  S
C975        H977   1.082       .  S
N978        N979   1.323       .  A
N978        C982   1.345       .  A
N979        C980   1.345       .  A
C980        C981   1.385       .  A
C980        H983   1.081       .  S
C981        C982   1.384       .  A
C981       C1741   1.482       .  S
C982        H984   1.082       .  S
N985        N986   1.320       .  A
N985        C989   1.345       .  A
N985       Cu993   2.064       .  S
N986        C987   1.342       .  A
N986       Cu992   2.063       .  S
C987        C988   1.383       .  A
C987        H990   1.081       .  S
C988        C989   1.384       .  A
C988       C2038   1.476       .  S
C989        H991   1.082       .  S
Cu992       N995   2.063       .  S
Cu993      N1003   2.065       .  S
Cu994       N996   2.087       .  S
Cu994      N1002   2.088       .  S
N995        N996   1.322       .  A
N995        C999   1.342       .  A
N996        C997   1.349       .  A
C997        C998   1.388       .  A
C997       H1000   1.082       .  S
C998        C999   1.381       .  A
C998       C1709   1.482       .  S
C999       H1001   1.082       .  S
N1002      N1003   1.324       .  A
N1002      C1006   1.346       .  A
N1003      C1004   1.343       .  A
C1004      C1005   1.379       .  A
C1004      H1007   1.082       .  S
C1005      C1006   1.386       .  A
C1005      C1942   1.477       .  S
C1006      H1008   1.082       .  S
N1009      N1010   1.321       .  A
N1009      C1013   1.344       .  A
N1009     Cu1017   2.072       .  S
N1010      C1011   1.342       .  A
N1010     Cu1016   2.058       .  S
C1011      C1012   1.380       .  A
C1011      H1014   1.082       .  S
C1012      C1013   1.384       .  A
C1012      C1645   1.471       .  S
C1013      H1015   1.082       .  S
Cu1016     N1019   2.058       .  S
Cu1017     N1027   2.072       .  S
Cu1018     N1020   2.072       .  S
Cu1018     N1026   2.073       .  S
N1019      N1020   1.321       .  A
N1019      C1023   1.343       .  A
N1020      C1021   1.344       .  A
C1021      C1022   1.385       .  A
C1021      H1024   1.082       .  S
C1022      C1023   1.382       .  A
C1022      C1622   1.477       .  S
C1023      H1025   1.082       .  S
N1026      N1027   1.322       .  A
N1026      C1030   1.344       .  A
N1027      C1028   1.344       .  A
C1028      C1029   1.385       .  A
C1028      H1031   1.080       .  S
C1029      C1030   1.385       .  A
C1029      C1677   1.483       .  S
C1030      H1032   1.082       .  S
N1033      N1034   1.323       .  A
N1033      C1037   1.345       .  A
N1033     Cu1041   2.076       .  S
N1034      C1035   1.345       .  A
N1034     Cu1040   2.074       .  S
C1035      C1036   1.383       .  A
C1035      H1038   1.082       .  S
C1036      C1037   1.383       .  A
C1036      C1581   1.477       .  S
C1037      H1039   1.082       .  S
Cu1040     N1043   2.074       .  S
Cu1041     N1051   2.076       .  S
Cu1042     N1044   2.068       .  S
Cu1042     N1050   2.068       .  S
N1043      N1044   1.322       .  A
N1043      C1047   1.345       .  A
N1044      C1045   1.344       .  A
C1045      C1046   1.382       .  A
C1045      H1048   1.082       .  S
C1046      C1047   1.384       .  A
C1046      C1558   1.476       .  S
C1047      H1049   1.082       .  S
N1050      N1051   1.322       .  A
N1050      C1054   1.343       .  A
N1051      C1052   1.346       .  A
C1052      C1053   1.386       .  A
C1052      H1055   1.082       .  S
C1053      C1054   1.383       .  A
C1053      C1526   1.480       .  S
C1054      H1056   1.082       .  S
N1057      N1058   1.322       .  A
N1057      C1061   1.344       .  A
N1057     Cu1065   2.071       .  S
N1058      C1059   1.344       .  A
N1058     Cu1064   2.067       .  S
C1059      C1060   1.384       .  A
C1059      H1062   1.082       .  S
C1060      C1061   1.383       .  A
C1060      C1453   1.478       .  S
C1061      H1063   1.082       .  S
Cu1064     N1067   2.067       .  S
Cu1065     N1075   2.071       .  S
Cu1066     N1068   2.066       .  S
Cu1066     N1074   2.066       .  S
N1067      N1068   1.321       .  A
N1067      C1071   1.343       .  A
N1068      C1069   1.345       .  A
C1069      C1070   1.383       .  A
C1069      H1072   1.082       .  S
C1070      C1071   1.381       .  A
C1070      C1485   1.474       .  S
C1071      H1073   1.082       .  S
N1074      N1075   1.322       .  A
N1074      C1078   1.342       .  A
N1075      C1076   1.345       .  A
C1076      C1077   1.383       .  A
C1076      H1079   1.082       .  S
C1077      C1078   1.381       .  A
C1077      C1430   1.473       .  S
C1078      H1080   1.082       .  S
N1081      N1082   1.321       .  A
N1081      C1085   1.345       .  A
N1081     Cu1089   2.067       .  S
N1082      C1083   1.343       .  A
N1082     Cu1088   2.071       .  S
C1083      C1084   1.384       .  A
C1083      H1086   1.082       .  S
C1084      C1085   1.384       .  A
C1084      C1462   1.479       .  S
C1085      H1087   1.082       .  S
Cu1088     N1091   2.071       .  S
Cu1089     N1099   2.068       .  S
Cu1090     N1092   2.071       .  S
Cu1090     N1098   2.071       .  S
N1091      N1092   1.321       .  A
N1091      C1095   1.344       .  A
N1092      C1093   1.345       .  A
C1093      C1094   1.384       .  A
C1093      H1096   1.082       .  S
C1094      C1095   1.385       .  A
C1094      C1590   1.481       .  S
C1095      H1097   1.082       .  S
N1098      N1099   1.322       .  A
N1098      C1102   1.344       .  A
N1099      C1100   1.344       .  A
C1100      C1101   1.381       .  A
C1100      H1103   1.082       .  S
C1101      C1102   1.383       .  A
C1101      C1389   1.475       .  S
C1102      H1104   1.082       .  S
N1105      N1106   1.321       .  A
N1105      C1109   1.343       .  A
N1105     Cu1113   2.065       .  S
N1106      C1107   1.343       .  A
N1106     Cu1112   2.063       .  S
C1107      C1108   1.383       .  A
C1107      H1110   1.082       .  S
C1108      C1109   1.383       .  A
C1108      C1654   1.474       .  S
C1109      H1111   1.082       .  S
Cu1112     N1115   2.063       .  S
Cu1113     N1123   2.065       .  S
Cu1114     N1116   2.065       .  S
Cu1114     N1122   2.065       .  S
N1115      N1116   1.322       .  A
N1115      C1119   1.342       .  A
N1116      C1117   1.343       .  A
C1117      C1118   1.382       .  A
C1117      H1120   1.082       .  S
C1118      C1119   1.382       .  A
C1118      C1357   1.473       .  S
C1119      H1121   1.082       .  S
N1122      N1123   1.322       .  A
N1122      C1126   1.344       .  A
N1123      C1124   1.342       .  A
C1124      C1125   1.381       .  A
C1124      H1127   1.082       .  S
C1125      C1126   1.382       .  A
C1125      C1494   1.472       .  S
C1126      H1128   1.082       .  S
N1129      N1130   1.321       .  A
N1129      C1133   1.346       .  A
N1129     Cu1137   2.075       .  S
N1130      C1131   1.343       .  A
N1130     Cu1136   2.064       .  S
C1131      C1132   1.382       .  A
C1131      H1134   1.082       .  S
C1132      C1133   1.386       .  A
C1132      C1686   1.478       .  S
C1133      H1135   1.082       .  S
Cu1136     N1139   2.064       .  S
Cu1137     N1147   2.075       .  S
Cu1138     N1140   2.069       .  S
Cu1138     N1146   2.069       .  S
N1139      N1140   1.321       .  A
N1139      C1143   1.343       .  A
N1140      C1141   1.344       .  A
C1141      C1142   1.384       .  A
C1141      H1144   1.082       .  S
C1142      C1143   1.382       .  A
C1142      C1334   1.475       .  S
C1143      H1145   1.082       .  S
N1146      N1147   1.323       .  A
N1146      C1150   1.344       .  A
N1147      C1148   1.344       .  A
C1148      C1149   1.383       .  A
C1148      H1151   1.082       .  S
C1149      C1150   1.383       .  A
C1149      C1549   1.477       .  S
C1150      H1152   1.082       .  S
O1153     Cu1161   2.001       .  S
O1153      C1163   1.277       .  A
O1154     Cu1161   2.003       .  S
O1154      C1164   1.277       .  A
O1155     Cu1161   2.006       .  S
O1155      C1165   1.278       .  A
O1156     Cu1161   2.007       .  S
O1156      C1166   1.277       .  A
O1157     Cu1162   2.001       .  S
O1157      C1166   1.277       .  A
O1158     Cu1162   2.007       .  S
O1158      C1165   1.278       .  A
O1159     Cu1162   1.995       .  S
O1159      C1164   1.276       .  A
O1160     Cu1162   1.993       .  S
O1160      C1163   1.276       .  A
Cu1161    Cu1162   2.376       .  S
C1163      C2166   1.467       .  S
C1164      C1325   1.469       .  S
C1165      C1782   1.478       .  S
C1166      C2550   1.470       .  S
O1167     Cu1175   2.010       .  S
O1167      C1177   1.278       .  A
O1168     Cu1175   1.998       .  S
O1168      C1178   1.277       .  A
O1169     Cu1175   2.000       .  S
O1169      C1179   1.277       .  A
O1170     Cu1175   2.009       .  S
O1170      C1180   1.277       .  A
O1171     Cu1176   1.998       .  S
O1171      C1180   1.277       .  A
O1172     Cu1176   1.998       .  S
O1172      C1179   1.277       .  A
O1173     Cu1176   1.997       .  S
O1173      C1178   1.276       .  A
O1174     Cu1176   2.001       .  S
O1174      C1177   1.277       .  A
Cu1175    Cu1176   2.375       .  S
C1177      C3286   1.478       .  S
C1178      C1366   1.465       .  S
C1179      C3629   1.470       .  S
C1180      C2486   1.479       .  S
O1181     Cu1189   2.009       .  S
O1181      C1191   1.278       .  A
O1182     Cu1189   2.011       .  S
O1182      C1192   1.278       .  A
O1183     Cu1189   2.006       .  S
O1183      C1193   1.277       .  A
O1184     Cu1189   2.004       .  S
O1184      C1194   1.276       .  A
O1185     Cu1190   2.008       .  S
O1185      C1194   1.278       .  A
O1186     Cu1190   2.013       .  S
O1186      C1193   1.278       .  A
O1187     Cu1190   2.007       .  S
O1187      C1192   1.278       .  A
O1188     Cu1190   2.000       .  S
O1188      C1191   1.277       .  A
Cu1189    Cu1190   2.375       .  S
C1191      C3670   1.472       .  S
C1192      C1750   1.482       .  S
C1193      C4022   1.475       .  S
C1194      C1398   1.470       .  S
O1195     Cu1203   2.008       .  S
O1195      C1205   1.278       .  A
O1196     Cu1203   2.009       .  S
O1196      C1206   1.278       .  A
O1197     Cu1203   2.011       .  S
O1197      C1207   1.278       .  A
O1198     Cu1203   2.017       .  S
O1198      C1208   1.279       .  A
O1199     Cu1204   2.007       .  S
O1199      C1208   1.277       .  A
O1200     Cu1204   2.003       .  S
O1200      C1207   1.278       .  A
O1201     Cu1204   2.018       .  S
O1201      C1206   1.279       .  A
O1202     Cu1204   2.022       .  S
O1202      C1205   1.279       .  A
Cu1203    Cu1204   2.368       .  S
C1205      C4054   1.490       .  S
C1206      C2134   1.483       .  S
C1207      C2934   1.485       .  S
C1208      C1718   1.485       .  S
O1209     Cu1217   2.011       .  S
O1209      C1219   1.278       .  A
O1210     Cu1217   2.008       .  S
O1210      C1220   1.278       .  A
O1211     Cu1217   2.007       .  S
O1211      C1221   1.277       .  A
O1212     Cu1217   2.002       .  S
O1212      C1222   1.277       .  A
O1213     Cu1218   2.000       .  S
O1213      C1222   1.277       .  A
O1214     Cu1218   2.001       .  S
O1214      C1221   1.278       .  A
O1215     Cu1218   1.998       .  S
O1215      C1220   1.276       .  A
O1216     Cu1218   1.994       .  S
O1216      C1219   1.276       .  A
Cu1217    Cu1218   2.377       .  S
C1219      C2870   1.470       .  S
C1220      C2518   1.468       .  S
C1221      C3254   1.475       .  S
C1222      C2102   1.470       .  S
O1223     Cu1231   2.007       .  S
O1223      C1233   1.278       .  A
O1224     Cu1231   2.003       .  S
O1224      C1234   1.277       .  A
O1225     Cu1231   2.012       .  S
O1225      C1235   1.278       .  A
O1226     Cu1231   2.010       .  S
O1226      C1236   1.277       .  A
O1227     Cu1232   1.999       .  S
O1227      C1236   1.277       .  A
O1228     Cu1232   1.997       .  S
O1228      C1235   1.277       .  A
O1229     Cu1232   2.003       .  S
O1229      C1234   1.277       .  A
O1230     Cu1232   1.998       .  S
O1230      C1233   1.276       .  A
Cu1231    Cu1232   2.376       .  S
C1233      C3693   1.470       .  S
C1234      C2902   1.473       .  S
C1235      C3318   1.478       .  S
C1236      C4086   1.471       .  S
O1237     Cu1245   2.003       .  S
O1237      C1247   1.277       .  A
O1238     Cu1245   2.003   1_545  S
O1238      C1248   1.277       .  A
O1239     Cu1245   2.015   1_545  S
O1239      C1249   1.279       .  A
O1240     Cu1245   2.017       .  S
O1240      C1250   1.279       .  A
O1241     Cu1246   2.006       .  S
O1241      C1250   1.278       .  A
O1242     Cu1246   2.006   1_545  S
O1242      C1249   1.277       .  A
O1243     Cu1246   2.001   1_545  S
O1243      C1248   1.277       .  A
O1244     Cu1246   2.000       .  S
O1244      C1247   1.277       .  A
Cu1245    Cu1246   2.376       .  S
C1247      C2294   1.470       .  S
C1248      C1421   1.470       .  S
C1249      C1910   1.478       .  S
C1250      C2669   1.478       .  S
O1251     Cu1259   2.007   1_565  S
O1251      C1261   1.278       .  A
O1252     Cu1259   2.005       .  S
O1252      C1262   1.278       .  A
O1253     Cu1259   2.005       .  S
O1253      C1263   1.277       .  A
O1254     Cu1259   2.006   1_565  S
O1254      C1264   1.277       .  A
O1255     Cu1260   2.005   1_565  S
O1255      C1264   1.278       .  A
O1256     Cu1260   2.003       .  S
O1256      C1263   1.277       .  A
O1257     Cu1260   2.005       .  S
O1257      C1262   1.277       .  A
O1258     Cu1260   2.002   1_565  S
O1258      C1261   1.277       .  A
Cu1259    Cu1260   2.376       .  S
C1261      C3158   1.473       .  S
C1262      C3830   1.476       .  S
C1263      C4214   1.474       .  S
C1264      C3446   1.472       .  S
O1265     Cu1273   2.002   1_564  S
O1265      C1275   1.277       .  A
O1266     Cu1273   1.995       .  S
O1266      C1276   1.276       .  A
O1267     Cu1273   2.006   1_554  S
O1267      C1277   1.277       .  A
O1268     Cu1273   2.009   1_565  S
O1268      C1278   1.277       .  A
O1269     Cu1274   2.009       .  S
O1269      C1278   1.277   1_545  A
O1270     Cu1274   2.007   1_554  S
O1270      C1277   1.278       .  A
O1271     Cu1274   2.011       .  S
O1271      C1276   1.279       .  A
O1272     Cu1274   2.004   1_554  S
O1272      C1275   1.277   1_545  A
Cu1273    Cu1274   2.376       .  S
C1275      C2582   1.476       .  S
C1276      C3734   1.477       .  S
C1277      C1517   1.473       .  S
C1278      C3542   1.472       .  S
O1279     Cu1287   2.009   1_554  S
O1279      C1289   1.278       .  A
O1280     Cu1287   2.013       .  S
O1280      C1290   1.279       .  A
O1281     Cu1287   1.992       .  S
O1281      C1291   1.275       .  A
O1282     Cu1287   1.990   1_554  S
O1282      C1292   1.275       .  A
O1283     Cu1288   2.012   1_554  S
O1283      C1292   1.278       .  A
O1284     Cu1288   2.011       .  S
O1284      C1291   1.278       .  A
O1285     Cu1288   2.004       .  S
O1285      C1290   1.277       .  A
O1286     Cu1288   1.997   1_554  S
O1286      C1289   1.276       .  A
Cu1287    Cu1288   2.377       .  S
C1289      C1613   1.470       .  S
C1290      C4118   1.475       .  S
C1291      C3926   1.469       .  S
C1292      C2006   1.470       .  S
O1293     Cu1301   2.000   1_554  S
O1293      C1303   1.277       .  A
O1294     Cu1301   2.003   1_565  S
O1294      C1304   1.277       .  A
O1295     Cu1301   2.010   1_564  S
O1295      C1305   1.278       .  A
O1296     Cu1301   2.006       .  S
O1296      C1306   1.278       .  A
O1297     Cu1302   2.001       .  S
O1297      C1306   1.276       .  A
O1298     Cu1302   1.999   1_564  S
O1298      C1305   1.276       .  A
O1299     Cu1302   2.005   1_565  S
O1299      C1304   1.278       .  A
O1300     Cu1302   2.007   1_554  S
O1300      C1303   1.278       .  A
Cu1301    Cu1302   2.376       .  S
C1303      C1805   1.473       .  S
C1304      C3062   1.476       .  S
C1305      C2381   1.472       .  S
C1306      C4301   1.471       .  S
O1307     Cu1315   2.005       .  S
O1307      C1317   1.277       .  A
O1308     Cu1315   2.003   1_554  S
O1308      C1318   1.276       .  A
O1309     Cu1315   2.006   1_554  S
O1309      C1319   1.278       .  A
O1310     Cu1315   2.012       .  S
O1310      C1320   1.278       .  A
O1311     Cu1316   2.002       .  S
O1311      C1320   1.277       .  A
O1312     Cu1316   2.000   1_554  S
O1312      C1319   1.277       .  A
O1313     Cu1316   2.004   1_554  S
O1313      C1318   1.278       .  A
O1314     Cu1316   2.001       .  S
O1314      C1317   1.277       .  A
Cu1315    Cu1316   2.377       .  S
C1317      C3350   1.472       .  S
C1318      C2198   1.470       .  S
C1319      C2765   1.474       .  S
C1320      C2966   1.473       .  S
C1321      C1322   1.399       .  A
C1321      C1326   1.402       .  A
C1321      H1331   1.084       .  S
C1322      C1323   1.410       .  A
C1322      C1327   1.473       .  S
C1323      C1324   1.401       .  A
C1323      C1328   1.507       .  S
C1324      C1325   1.402       .  A
C1324      H1329   1.084       .  S
C1325      C1326   1.415       .  A
C1326      C1330   1.508       .  S
C1327      C1332   1.409       .  A
C1327      C1336   1.399       .  A
C1328      H1344   1.110       .  S
C1328      H1345   1.110       .  S
C1328      H1346   1.111       .  S
C1330      H1341   1.111       .  S
C1330      H1342   1.109       .  S
C1330      H1343   1.111       .  S
C1332      C1333   1.399       .  A
C1332      C1337   1.507       .  S
C1333      C1334   1.404       .  A
C1333      H1338   1.084       .  S
C1334      C1335   1.416       .  A
C1335      C1336   1.402       .  A
C1335      C1339   1.507       .  S
C1336      H1340   1.085       .  S
C1337      H1347   1.111       .  S
C1337      H1348   1.110       .  S
C1337      H1349   1.110       .  S
C1339      H1350   1.111       .  S
C1339      H1351   1.107       .  S
C1339      H1352   1.110       .  S
C1353      C1354   1.399       .  A
C1353      C1358   1.399       .  A
C1353      H1363   1.085       .  S
C1354      C1355   1.409       .  A
C1354      C1359   1.473       .  S
C1355      C1356   1.401       .  A
C1355      C1360   1.507       .  S
C1356      C1357   1.404       .  A
C1356      H1361   1.084       .  S
C1357      C1358   1.416       .  A
C1358      C1362   1.508       .  S
C1359      C1364   1.410       .  A
C1359      C1368   1.400       .  A
C1360      H1376   1.110       .  S
C1360      H1377   1.110       .  S
C1360      H1378   1.111       .  S
C1362      H1373   1.110       .  S
C1362      H1374   1.111       .  S
C1362      H1375   1.106       .  S
C1364      C1365   1.400       .  A
C1364      C1369   1.507       .  S
C1365      C1366   1.402       .  A
C1365      H1370   1.085       .  S
C1366      C1367   1.415       .  A
C1367      C1368   1.400       .  A
C1367      C1371   1.509       .  S
C1368      H1372   1.085       .  S
C1369      H1379   1.111       .  S
C1369      H1380   1.110       .  S
C1369      H1381   1.110       .  S
C1371      H1382   1.110       .  S
C1371      H1383   1.107       .  S
C1371      H1384   1.111       .  S
C1385      C1386   1.399       .  A
C1385      C1390   1.400       .  A
C1385      H1395   1.085       .  S
C1386      C1387   1.409       .  A
C1386      C1391   1.477       .  S
C1387      C1388   1.404       .  A
C1387      C1392   1.506       .  S
C1388      C1389   1.405       .  A
C1388      H1393   1.084       .  S
C1389      C1390   1.417       .  A
C1390      C1394   1.508       .  S
C1391      C1396   1.410       .  A
C1391      C1400   1.401       .  A
C1392      H1408   1.110       .  S
C1392      H1409   1.110       .  S
C1392      H1410   1.111       .  S
C1394      H1405   1.110       .  S
C1394      H1406   1.111       .  S
C1394      H1407   1.105       .  S
C1396      C1397   1.402       .  A
C1396      C1401   1.506       .  S
C1397      C1398   1.402       .  A
C1397      H1402   1.084       .  S
C1398      C1399   1.415       .  A
C1399      C1400   1.402       .  A
C1399      C1403   1.508       .  S
C1400      H1404   1.085       .  S
C1401      H1411   1.111       .  S
C1401      H1412   1.110       .  S
C1401      H1413   1.110       .  S
C1403      H1414   1.110       .  S
C1403      H1415   1.108       .  S
C1403      H1416   1.111       .  S
C1417      C1418   1.399       .  A
C1417      C1422   1.401       .  A
C1417      H1427   1.085       .  S
C1418      C1419   1.410       .  A
C1418      C1423   1.475       .  S
C1419      C1420   1.402       .  A
C1419      C1424   1.507       .  S
C1420      C1421   1.403       .  A
C1420      H1425   1.084       .  S
C1421      C1422   1.416       .  A
C1422      C1426   1.509       .  S
C1423      C1428   1.410       .  A
C1423      C1432   1.400       .  A
C1424      H1440   1.110       .  S
C1424      H1441   1.110       .  S
C1424      H1442   1.111       .  S
C1426      H1437   1.111       .  S
C1426      H1438   1.110       .  S
C1426      H1439   1.107       .  S
C1428      C1429   1.402       .  A
C1428      C1433   1.507       .  S
C1429      C1430   1.402       .  A
C1429      H1434   1.084       .  S
C1430      C1431   1.414       .  A
C1431      C1432   1.402       .  A
C1431      C1435   1.507       .  S
C1432      H1436   1.084       .  S
C1433      H1443   1.111       .  S
C1433      H1444   1.110       .  S
C1433      H1445   1.110       .  S
C1435      H1446   1.111       .  S
C1435      H1447   1.110       .  S
C1435      H1448   1.108       .  S
C1449      C1450   1.400       .  A
C1449      C1454   1.403       .  A
C1449      H1459   1.085       .  S
C1450      C1451   1.409       .  A
C1450      C1455   1.477       .  S
C1451      C1452   1.401       .  A
C1451      C1456   1.507       .  S
C1452      C1453   1.404       .  A
C1452      H1457   1.084       .  S
C1453      C1454   1.418       .  A
C1454      C1458   1.508       .  S
C1455      C1460   1.408       .  A
C1455      C1464   1.400       .  A
C1456      H1472   1.110       .  S
C1456      H1473   1.110       .  S
C1456      H1474   1.111       .  S
C1458      H1469   1.110       .  S
C1458      H1470   1.111       .  S
C1458      H1471   1.106       .  S
C1460      C1461   1.400       .  A
C1460      C1465   1.507       .  S
C1461      C1462   1.405       .  A
C1461      H1466   1.084       .  S
C1462      C1463   1.419       .  A
C1463      C1464   1.404       .  A
C1463      C1467   1.508       .  S
C1464      H1468   1.085       .  S
C1465      H1475   1.111       .  S
C1465      H1476   1.110       .  S
C1465      H1477   1.110       .  S
C1467      H1478   1.110       .  S
C1467      H1479   1.105       .  S
C1467      H1480   1.111       .  S
C1481      C1482   1.400       .  A
C1481      C1486   1.401       .  A
C1481      H1491   1.085       .  S
C1482      C1483   1.408       .  A
C1482      C1487   1.474       .  S
C1483      C1484   1.401       .  A
C1483      C1488   1.506       .  S
C1484      C1485   1.404       .  A
C1484      H1489   1.084       .  S
C1485      C1486   1.417       .  A
C1486      C1490   1.508       .  S
C1487      C1492   1.409       .  A
C1487      C1496   1.400       .  A
C1488      H1504   1.110       .  S
C1488      H1505   1.110       .  S
C1488      H1506   1.111       .  S
C1490      H1501   1.111       .  S
C1490      H1502   1.110       .  S
C1490      H1503   1.105       .  S
C1492      C1493   1.400       .  A
C1492      C1497   1.507       .  S
C1493      C1494   1.403       .  A
C1493      H1498   1.084       .  S
C1494      C1495   1.416       .  A
C1495      C1496   1.402       .  A
C1495      C1499   1.507       .  S
C1496      H1500   1.085       .  S
C1497      H1507   1.111       .  S
C1497      H1508   1.110       .  S
C1497      H1509   1.110       .  S
C1499      H1510   1.111       .  S
C1499      H1511   1.106       .  S
C1499      H1512   1.110       .  S
C1513      C1514   1.400       .  A
C1513      C1518   1.401       .  A
C1513      H1523   1.085       .  S
C1514      C1515   1.410       .  A
C1514      C1519   1.478       .  S
C1515      C1516   1.404       .  A
C1515      C1520   1.506       .  S
C1516      C1517   1.404       .  A
C1516      H1521   1.084       .  S
C1517      C1518   1.415       .  A
C1518      C1522   1.508       .  S
C1519      C1524   1.409       .  A
C1519      C1528   1.400       .  A
C1520      H1536   1.110       .  S
C1520      H1537   1.110       .  S
C1520      H1538   1.111       .  S
C1522      H1533   1.110       .  S
C1522      H1534   1.111       .  S
C1522      H1535   1.107       .  S
C1524      C1525   1.401       .  A
C1524      C1529   1.507       .  S
C1525      C1526   1.404       .  A
C1525      H1530   1.084       .  S
C1526      C1527   1.418       .  A
C1527      C1528   1.404       .  A
C1527      C1531   1.507       .  S
C1528      H1532   1.084       .  S
C1529      H1539   1.111       .  S
C1529      H1540   1.110       .  S
C1529      H1541   1.110       .  S
C1531      H1542   1.110       .  S
C1531      H1543   1.106       .  S
C1531      H1544   1.111       .  S
C1545      C1546   1.400       .  A
C1545      C1550   1.403       .  A
C1545      H1555   1.085       .  S
C1546      C1547   1.409       .  A
C1546      C1551   1.478       .  S
C1547      C1548   1.402       .  A
C1547      C1552   1.507       .  S
C1548      C1549   1.404       .  A
C1548      H1553   1.084       .  S
C1549      C1550   1.417       .  A
C1550      C1554   1.508       .  S
C1551      C1556   1.410       .  A
C1551      C1560   1.400       .  A
C1552      H1568   1.110       .  S
C1552      H1569   1.110       .  S
C1552      H1570   1.111       .  S
C1554      H1565   1.111       .  S
C1554      H1566   1.110       .  S
C1554      H1567   1.106       .  S
C1556      C1557   1.402       .  A
C1556      C1561   1.507       .  S
C1557      C1558   1.404       .  A
C1557      H1562   1.084       .  S
C1558      C1559   1.417       .  A
C1559      C1560   1.403       .  A
C1559      C1563   1.508       .  S
C1560      H1564   1.084       .  S
C1561      H1571   1.111       .  S
C1561      H1572   1.110       .  S
C1561      H1573   1.110       .  S
C1563      H1574   1.111       .  S
C1563      H1575   1.107       .  S
C1563      H1576   1.110       .  S
C1577      C1578   1.400       .  A
C1577      C1582   1.403       .  A
C1577      H1587   1.085       .  S
C1578      C1579   1.410       .  A
C1578      C1583   1.478       .  S
C1579      C1580   1.403       .  A
C1579      C1584   1.507       .  S
C1580      C1581   1.404       .  A
C1580      H1585   1.084       .  S
C1581      C1582   1.417       .  A
C1582      C1586   1.507       .  S
C1583      C1588   1.409       .  A
C1583      C1592   1.399       .  A
C1584      H1600   1.110       .  S
C1584      H1601   1.110       .  S
C1584      H1602   1.111       .  S
C1586      H1597   1.111       .  S
C1586      H1598   1.110       .  S
C1586      H1599   1.107       .  S
C1588      C1589   1.404       .  A
C1588      C1593   1.506       .  S
C1589      C1590   1.406       .  A
C1589      H1594   1.084       .  S
C1590      C1591   1.418       .  A
C1591      C1592   1.402       .  A
C1591      C1595   1.508       .  S
C1592      H1596   1.085       .  S
C1593      H1603   1.111       .  S
C1593      H1604   1.110       .  S
C1593      H1605   1.110       .  S
C1595      H1606   1.111       .  S
C1595      H1607   1.106       .  S
C1595      H1608   1.110       .  S
C1609      C1610   1.400       .  A
C1609      C1614   1.400       .  A
C1609      H1619   1.085       .  S
C1610      C1611   1.410       .  A
C1610      C1615   1.477       .  S
C1611      C1612   1.403       .  A
C1611      C1616   1.506       .  S
C1612      C1613   1.403       .  A
C1612      H1617   1.084       .  S
C1613      C1614   1.415       .  A
C1614      C1618   1.509       .  S
C1615      C1620   1.409       .  A
C1615      C1624   1.400       .  A
C1616      H1632   1.110       .  S
C1616      H1633   1.110       .  S
C1616      H1634   1.111       .  S
C1618      H1629   1.111       .  S
C1618      H1630   1.110       .  S
C1618      H1631   1.107   1_554  S
C1620      C1621   1.400       .  A
C1620      C1625   1.507       .  S
C1621      C1622   1.404       .  A
C1621      H1626   1.084       .  S
C1622      C1623   1.418       .  A
C1623      C1624   1.402       .  A
C1623      C1627   1.508       .  S
C1624      H1628   1.085       .  S
C1625      H1635   1.111       .  S
C1625      H1636   1.110       .  S
C1625      H1637   1.110       .  S
C1627      H1638   1.111       .  S
C1627      H1639   1.106       .  S
C1627      H1640   1.110       .  S
C1641      C1642   1.400       .  A
C1641      C1646   1.402       .  A
C1641      H1651   1.085       .  S
C1642      C1643   1.408       .  A
C1642      C1647   1.473       .  S
C1643      C1644   1.399       .  A
C1643      C1648   1.507       .  S
C1644      C1645   1.404       .  A
C1644      H1649   1.084       .  S
C1645      C1646   1.414       .  A
C1646      C1650   1.507       .  S
C1647      C1652   1.409       .  A
C1647      C1656   1.399       .  A
C1648      H1664   1.110       .  S
C1648      H1665   1.110       .  S
C1648      H1666   1.111       .  S
C1650      H1661   1.110       .  S
C1650      H1662   1.111       .  S
C1650      H1663   1.107       .  S
C1652      C1653   1.401       .  A
C1652      C1657   1.507       .  S
C1653      C1654   1.404       .  A
C1653      H1658   1.084       .  S
C1654      C1655   1.417       .  A
C1655      C1656   1.401       .  A
C1655      C1659   1.508       .  S
C1656      H1660   1.085       .  S
C1657      H1667   1.111       .  S
C1657      H1668   1.110       .  S
C1657      H1669   1.110       .  S
C1659      H1670   1.110       .  S
C1659      H1671   1.106       .  S
C1659      H1672   1.111       .  S
C1673      C1674   1.399       .  A
C1673      C1678   1.404       .  A
C1673      H1683   1.084       .  S
C1674      C1675   1.409       .  A
C1674      C1679   1.478       .  S
C1675      C1676   1.403       .  A
C1675      C1680   1.507       .  S
C1676      C1677   1.406       .  A
C1676      H1681   1.084       .  S
C1677      C1678   1.418       .  A
C1678      C1682   1.507       .  S
C1679      C1684   1.409       .  A
C1679      C1688   1.400       .  A
C1680      H1696   1.110       .  S
C1680      H1697   1.109       .  S
C1680      H1698   1.111       .  S
C1682      H1693   1.107       .  S
C1682      H1694   1.111       .  S
C1682      H1695   1.110       .  S
C1684      C1685   1.402       .  A
C1684      C1689   1.507       .  S
C1685      C1686   1.405       .  A
C1685      H1690   1.084       .  S
C1686      C1687   1.417       .  A
C1687      C1688   1.402       .  A
C1687      C1691   1.508       .  S
C1688      H1692   1.085       .  S
C1689      H1699   1.111       .  S
C1689      H1700   1.110       .  S
C1689      H1701   1.109       .  S
C1691      H1702   1.110       .  S
C1691      H1703   1.106       .  S
C1691      H1704   1.111       .  S
C1705      C1706   1.399       .  A
C1705      C1710   1.402       .  A
C1705      H1715   1.085       .  S
C1706      C1707   1.411       .  A
C1706      C1711   1.481       .  S
C1707      C1708   1.406       .  A
C1707      C1712   1.506       .  S
C1708      C1709   1.405       .  A
C1708      H1713   1.084       .  S
C1709      C1710   1.419       .  A
C1710      C1714   1.508       .  S
C1711      C1716   1.409       .  A
C1711      C1720   1.398       .  A
C1712      H1728   1.110       .  S
C1712      H1729   1.110       .  S
C1712      H1730   1.111       .  S
C1714      H1725   1.110       .  S
C1714      H1726   1.111       .  S
C1714      H1727   1.107       .  S
C1716      C1717   1.404       .  A
C1716      C1721   1.507       .  S
C1717      C1718   1.407       .  A
C1717      H1722   1.084       .  S
C1718      C1719   1.423       .  A
C1719      C1720   1.404       .  A
C1719      C1723   1.508       .  S
C1720      H1724   1.085       .  S
C1721      H1731   1.111       .  S
C1721      H1732   1.110       .  S
C1721      H1733   1.110       .  S
C1723      H1734   1.110       .  S
C1723      H1735   1.102       .  S
C1723      H1736   1.111       .  S
C1737      C1738   1.400       .  A
C1737      C1742   1.405       .  A
C1737      H1747   1.084       .  S
C1738      C1739   1.410       .  A
C1738      C1743   1.480       .  S
C1739      C1740   1.404       .  A
C1739      C1744   1.506       .  S
C1740      C1741   1.405       .  A
C1740      H1745   1.084       .  S
C1741      C1742   1.416       .  A
C1742      C1746   1.507       .  S
C1743      C1748   1.410       .  A
C1743      C1752   1.400       .  A
C1744      H1760   1.110       .  S
C1744      H1761   1.110       .  S
C1744      H1762   1.111       .  S
C1746      H1757   1.107       .  S
C1746      H1758   1.111       .  S
C1746      H1759   1.110       .  S
C1748      C1749   1.404       .  A
C1748      C1753   1.507       .  S
C1749      C1750   1.406       .  A
C1749      H1754   1.084       .  S
C1750      C1751   1.417       .  A
C1751      C1752   1.404       .  A
C1751      C1755   1.507       .  S
C1752      H1756   1.084       .  S
C1753      H1763   1.111       .  S
C1753      H1764   1.110       .  S
C1753      H1765   1.110       .  S
C1755      H1766   1.109       .  S
C1755      H1767   1.111       .  S
C1755      H1768   1.111       .  S
C1769      C1770   1.400       .  A
C1769      C1774   1.402       .  A
C1769      H1779   1.085       .  S
C1770      C1771   1.410       .  A
C1770      C1775   1.480       .  S
C1771      C1772   1.405       .  A
C1771      C1776   1.506       .  S
C1772      C1773   1.405       .  A
C1772      H1777   1.084       .  S
C1773      C1774   1.418       .  A
C1774      C1778   1.508       .  S
C1775      C1780   1.410       .  A
C1775      C1784   1.400       .  A
C1776      H1792   1.110       .  S
C1776      H1793   1.110       .  S
C1776      H1794   1.111       .  S
C1778      H1789   1.111       .  S
C1778      H1790   1.110       .  S
C1778      H1791   1.106       .  S
C1780      C1781   1.402       .  A
C1780      C1785   1.506       .  S
C1781      C1782   1.405       .  A
C1781      H1786   1.084       .  S
C1782      C1783   1.420       .  A
C1783      C1784   1.403       .  A
C1783      C1787   1.509       .  S
C1784      H1788   1.085       .  S
C1785      H1795   1.111       .  S
C1785      H1796   1.110       .  S
C1785      H1797   1.110       .  S
C1787      H1798   1.111       .  S
C1787      H1799   1.105       .  S
C1787      H1800   1.110       .  S
C1801      C1802   1.399       .  A
C1801      C1806   1.401       .  A
C1801      H1811   1.085       .  S
C1802      C1803   1.410       .  A
C1802      C1807   1.477       .  S
C1803      C1804   1.403       .  A
C1803      C1808   1.506       .  S
C1804      C1805   1.404       .  A
C1804      H1809   1.084       .  S
C1805      C1806   1.418       .  A
C1806      C1810   1.509       .  S
C1807      C1812   1.409       .  A
C1807      C1816   1.399       .  A
C1808      H1824   1.110       .  S
C1808      H1825   1.110       .  S
C1808      H1826   1.111       .  S
C1810      H1821   1.111   1_554  S
C1810      H1822   1.110       .  S
C1810      H1823   1.106   1_554  S
C1812      C1813   1.402       .  A
C1812      C1817   1.507       .  S
C1813      C1814   1.404       .  A
C1813      H1818   1.084       .  S
C1814      C1815   1.419       .  A
C1815      C1816   1.403       .  A
C1815      C1819   1.508       .  S
C1816      H1820   1.085       .  S
C1817      H1827   1.111       .  S
C1817      H1828   1.110       .  S
C1817      H1829   1.110       .  S
C1819      H1830   1.111       .  S
C1819      H1831   1.106       .  S
C1819      H1832   1.110       .  S
C1833      C1834   1.400       .  A
C1833      C1838   1.404       .  A
C1833      H1843   1.085       .  S
C1834      C1835   1.410       .  A
C1834      C1839   1.480       .  S
C1835      C1836   1.403       .  A
C1835      C1840   1.507       .  S
C1836      C1837   1.404       .  A
C1836      H1841   1.084       .  S
C1837      C1838   1.419       .  A
C1838      C1842   1.508       .  S
C1839      C1844   1.409       .  A
C1839      C1848   1.401       .  A
C1840      H1856   1.110       .  S
C1840      H1857   1.110       .  S
C1840      H1858   1.111       .  S
C1842      H1853   1.110       .  S
C1842      H1854   1.111       .  S
C1842      H1855   1.105       .  S
C1844      C1845   1.404       .  A
C1844      C1849   1.506       .  S
C1845      C1846   1.405       .  A
C1845      H1850   1.084       .  S
C1846      C1847   1.415       .  A
C1847      C1848   1.403       .  A
C1847      C1851   1.507       .  S
C1848      H1852   1.084       .  S
C1849      H1859   1.111       .  S
C1849      H1860   1.110       .  S
C1849      H1861   1.110       .  S
C1851      H1862   1.108       .  S
C1851      H1863   1.110       .  S
C1851      H1864   1.111       .  S
C1865      C1866   1.400       .  A
C1865      C1870   1.403       .  A
C1865      H1875   1.085       .  S
C1866      C1867   1.410       .  A
C1866      C1871   1.479       .  S
C1867      C1868   1.403       .  A
C1867      C1872   1.507       .  S
C1868      C1869   1.404       .  A
C1868      H1873   1.084       .  S
C1869      C1870   1.418       .  A
C1870      C1874   1.508       .  S
C1871      C1876   1.409       .  A
C1871      C1880   1.400       .  A
C1872      H1888   1.110       .  S
C1872      H1889   1.110       .  S
C1872      H1890   1.111       .  S
C1874      H1885   1.111       .  S
C1874      H1886   1.110       .  S
C1874      H1887   1.106       .  S
C1876      C1877   1.403       .  A
C1876      C1881   1.507       .  S
C1877      C1878   1.406       .  A
C1877      H1882   1.084       .  S
C1878      C1879   1.417       .  A
C1879      C1880   1.403       .  A
C1879      C1883   1.507       .  S
C1880      H1884   1.085       .  S
C1881      H1891   1.111       .  S
C1881      H1892   1.110       .  S
C1881      H1893   1.110       .  S
C1883      H1894   1.111       .  S
C1883      H1895   1.107       .  S
C1883      H1896   1.110       .  S
C1897      C1898   1.401       .  A
C1897      C1902   1.405       .  A
C1897      H1907   1.084       .  S
C1898      C1899   1.410       .  A
C1898      C1903   1.480       .  S
C1899      C1900   1.402       .  A
C1899      C1904   1.507       .  S
C1900      C1901   1.405       .  A
C1900      H1905   1.084       .  S
C1901      C1902   1.418       .  A
C1902      C1906   1.507       .  S
C1903      C1908   1.410       .  A
C1903      C1912   1.400   1_655  A
C1904      H1920   1.110   1_655  S
C1904      H1921   1.110       .  S
C1904      H1922   1.111       .  S
C1906      H1917   1.110       .  S
C1906      H1918   1.111       .  S
C1906      H1919   1.106       .  S
C1908      C1909   1.404   1_655  A
C1908      C1913   1.507       .  S
C1909      C1910   1.405       .  A
C1909      H1914   1.084   1_455  S
C1910      C1911   1.418       .  A
C1911      C1912   1.403       .  A
C1911      C1915   1.509       .  S
C1912      H1916   1.085       .  S
C1913      H1923   1.111       .  S
C1913      H1924   1.110       .  S
C1913      H1925   1.110       .  S
C1915      H1926   1.110       .  S
C1915      H1927   1.106       .  S
C1915      H1928   1.111       .  S
C1929      C1930   1.400       .  A
C1929      C1934   1.402       .  A
C1929      H1939   1.085       .  S
C1930      C1931   1.409       .  A
C1930      C1935   1.478       .  S
C1931      C1932   1.403       .  A
C1931      C1936   1.506       .  S
C1932      C1933   1.403       .  A
C1932      H1937   1.084       .  S
C1933      C1934   1.416       .  A
C1934      C1938   1.508       .  S
C1935      C1940   1.410       .  A
C1935      C1944   1.399       .  A
C1936      H1952   1.110       .  S
C1936      H1953   1.110       .  S
C1936      H1954   1.111       .  S
C1938      H1949   1.111       .  S
C1938      H1950   1.110       .  S
C1938      H1951   1.106       .  S
C1940      C1941   1.404       .  A
C1940      C1945   1.506       .  S
C1941      C1942   1.405       .  A
C1941      H1946   1.084       .  S
C1942      C1943   1.417       .  A
C1943      C1944   1.402       .  A
C1943      C1947   1.508       .  S
C1944      H1948   1.085       .  S
C1945      H1955   1.111       .  S
C1945      H1956   1.110       .  S
C1945      H1957   1.110       .  S
C1947      H1958   1.111       .  S
C1947      H1959   1.105       .  S
C1947      H1960   1.110       .  S
C1961      C1962   1.401       .  A
C1961      C1966   1.404       .  A
C1961      H1971   1.084       .  S
C1962      C1963   1.409       .  A
C1962      C1967   1.482       .  S
C1963      C1964   1.404       .  A
C1963      C1968   1.506       .  S
C1964      C1965   1.405       .  A
C1964      H1969   1.084       .  S
C1965      C1966   1.416       .  A
C1966      C1970   1.507       .  S
C1967      C1972   1.409       .  A
C1967      C1976   1.401       .  A
C1968      H1984   1.110       .  S
C1968      H1985   1.110       .  S
C1968      H1986   1.111       .  S
C1970      H1981   1.111       .  S
C1970      H1982   1.108       .  S
C1970      H1983   1.110       .  S
C1972      C1973   1.401       .  A
C1972      C1977   1.507       .  S
C1973      C1974   1.406       .  A
C1973      H1978   1.084       .  S
C1974      C1975   1.420       .  A
C1975      C1976   1.407       .  A
C1975      C1979   1.507       .  S
C1976      H1980   1.084       .  S
C1977      H1987   1.111       .  S
C1977      H1988   1.110       .  S
C1977      H1989   1.110       .  S
C1979      H1990   1.111       .  S
C1979      H1991   1.105       .  S
C1979      H1992   1.110       .  S
C1993      C1994   1.399       .  A
C1993      C1998   1.400       .  A
C1993      H2003   1.085       .  S
C1994      C1995   1.409       .  A
C1994      C1999   1.475       .  S
C1995      C1996   1.403       .  A
C1995      C2000   1.507       .  S
C1996      C1997   1.406       .  A
C1996      H2001   1.084       .  S
C1997      C1998   1.416       .  A
C1998      C2002   1.507       .  S
C1999      C2004   1.409       .  A
C1999      C2008   1.401   1_655  A
C2000      H2016   1.110   1_655  S
C2000      H2017   1.110       .  S
C2000      H2018   1.111       .  S
C2002      H2013   1.110       .  S
C2002      H2014   1.111       .  S
C2002      H2015   1.106       .  S
C2004      C2005   1.399       .  A
C2004      C2009   1.507       .  S
C2005      C2006   1.402   1_655  A
C2005      H2010   1.084       .  S
C2006      C2007   1.417       .  A
C2007      C2008   1.404       .  A
C2007      C2011   1.509       .  S
C2008      H2012   1.084       .  S
C2009      H2019   1.111       .  S
C2009      H2020   1.110       .  S
C2009      H2021   1.110       .  S
C2011      H2022   1.110       .  S
C2011      H2023   1.106       .  S
C2011      H2024   1.111       .  S
C2025      C2026   1.398       .  A
C2025      C2030   1.400       .  A
C2025      H2035   1.085       .  S
C2026      C2027   1.409       .  A
C2026      C2031   1.475       .  S
C2027      C2028   1.402       .  A
C2027      C2032   1.506       .  S
C2028      C2029   1.403       .  A
C2028      H2033   1.084       .  S
C2029      C2030   1.418       .  A
C2030      C2034   1.508       .  S
C2031      C2036   1.410       .  A
C2031      C2040   1.399       .  A
C2032      H2048   1.110       .  S
C2032      H2049   1.110       .  S
C2032      H2050   1.111       .  S
C2034      H2045   1.111       .  S
C2034      H2046   1.110       .  S
C2034      H2047   1.105       .  S
C2036      C2037   1.402       .  A
C2036      C2041   1.507       .  S
C2037      C2038   1.404       .  A
C2037      H2042   1.084       .  S
C2038      C2039   1.415       .  A
C2039      C2040   1.401       .  A
C2039      C2043   1.507       .  S
C2040      H2044   1.084       .  S
C2041      H2051   1.111       .  S
C2041      H2052   1.110       .  S
C2041      H2053   1.110       .  S
C2043      H2054   1.111       .  S
C2043      H2055   1.110       .  S
C2043      H2056   1.107       .  S
C2057      C2058   1.399       .  A
C2057      C2062   1.402       .  A
C2057      H2067   1.085       .  S
C2058      C2059   1.410       .  A
C2058      C2063   1.481       .  S
C2059      C2060   1.405       .  A
C2059      C2064   1.506       .  S
C2060      C2061   1.406       .  A
C2060      H2065   1.084       .  S
C2061      C2062   1.419       .  A
C2062      C2066   1.508       .  S
C2063      C2068   1.410       .  A
C2063      C2072   1.400       .  A
C2064      H2080   1.110       .  S
C2064      H2081   1.110       .  S
C2064      H2082   1.111       .  S
C2066      H2077   1.110       .  S
C2066      H2078   1.111       .  S
C2066      H2079   1.105       .  S
C2068      C2069   1.405       .  A
C2068      C2073   1.506       .  S
C2069      C2070   1.405       .  A
C2069      H2074   1.084       .  S
C2070      C2071   1.418       .  A
C2071      C2072   1.402       .  A
C2071      C2075   1.508       .  S
C2072      H2076   1.085       .  S
C2073      H2083   1.111       .  S
C2073      H2084   1.110       .  S
C2073      H2085   1.110       .  S
C2075      H2086   1.110       .  S
C2075      H2087   1.106       .  S
C2075      H2088   1.111       .  S
C2089      C2090   1.399       .  A
C2089      C2094   1.400       .  A
C2089      H2099   1.085       .  S
C2090      C2091   1.408       .  A
C2090      C2095   1.473       .  S
C2091      C2092   1.402       .  A
C2091      C2096   1.506       .  S
C2092      C2093   1.405       .  A
C2092      H2097   1.084       .  S
C2093      C2094   1.416       .  A
C2094      C2098   1.508       .  S
C2095      C2100   1.409       .  A
C2095      C2104   1.400       .  A
C2096      H2112   1.110       .  S
C2096      H2113   1.110       .  S
C2096      H2114   1.111       .  S
C2098      H2109   1.110       .  S
C2098      H2110   1.111       .  S
C2098      H2111   1.106       .  S
C2100      C2101   1.401       .  A
C2100      C2105   1.506       .  S
C2101      C2102   1.403       .  A
C2101      H2106   1.084       .  S
C2102      C2103   1.416       .  A
C2103      C2104   1.401       .  A
C2103      C2107   1.508       .  S
C2104      H2108   1.085       .  S
C2105      H2115   1.111       .  S
C2105      H2116   1.110       .  S
C2105      H2117   1.110       .  S
C2107      H2118   1.110       .  S
C2107      H2119   1.107       .  S
C2107      H2120   1.111       .  S
C2121      C2122   1.401       .  A
C2121      C2126   1.407       .  A
C2121      H2131   1.084       .  S
C2122      C2123   1.410       .  A
C2122      C2127   1.482       .  S
C2123      C2124   1.402       .  A
C2123      C2128   1.506       .  S
C2124      C2125   1.405       .  A
C2124      H2129   1.084       .  S
C2125      C2126   1.417       .  A
C2126      C2130   1.507       .  S
C2127      C2132   1.409       .  A
C2127      C2136   1.401       .  A
C2128      H2144   1.110       .  S
C2128      H2145   1.110       .  S
C2128      H2146   1.111       .  S
C2130      H2141   1.107       .  S
C2130      H2142   1.111       .  S
C2130      H2143   1.110       .  S
C2132      C2133   1.404       .  A
C2132      C2137   1.507       .  S
C2133      C2134   1.407       .  A
C2133      H2138   1.084       .  S
C2134      C2135   1.419       .  A
C2135      C2136   1.405       .  A
C2135      C2139   1.508       .  S
C2136      H2140   1.085       .  S
C2137      H2147   1.111       .  S
C2137      H2148   1.110       .  S
C2137      H2149   1.110       .  S
C2139      H2150   1.110       .  S
C2139      H2151   1.106       .  S
C2139      H2152   1.111       .  S
C2153      C2154   1.398       .  A
C2153      C2158   1.400       .  A
C2153      H2163   1.085       .  S
C2154      C2155   1.409       .  A
C2154      C2159   1.472       .  S
C2155      C2156   1.400       .  A
C2155      C2160   1.507       .  S
C2156      C2157   1.403       .  A
C2156      H2161   1.084       .  S
C2157      C2158   1.417       .  A
C2158      C2162   1.508       .  S
C2159      C2164   1.409       .  A
C2159      C2168   1.399       .  A
C2160      H2176   1.110       .  S
C2160      H2177   1.110       .  S
C2160      H2178   1.111       .  S
C2162      H2173   1.110       .  S
C2162      H2174   1.111       .  S
C2162      H2175   1.107       .  S
C2164      C2165   1.400       .  A
C2164      C2169   1.506       .  S
C2165      C2166   1.403       .  A
C2165      H2170   1.084       .  S
C2166      C2167   1.416       .  A
C2167      C2168   1.400       .  A
C2167      C2171   1.509       .  S
C2168      H2172   1.085       .  S
C2169      H2179   1.111       .  S
C2169      H2180   1.110       .  S
C2169      H2181   1.110       .  S
C2171      H2182   1.110       .  S
C2171      H2183   1.106       .  S
C2171      H2184   1.111       .  S
C2185      C2186   1.399       .  A
C2185      C2190   1.402       .  A
C2185      H2195   1.085       .  S
C2186      C2187   1.408       .  A
C2186      C2191   1.476       .  S
C2187      C2188   1.402       .  A
C2187      C2192   1.506       .  S
C2188      C2189   1.406       .  A
C2188      H2193   1.084       .  S
C2189      C2190   1.418       .  A
C2190      C2194   1.508       .  S
C2191      C2196   1.409       .  A
C2191      C2200   1.400       .  A
C2192      H2208   1.110       .  S
C2192      H2209   1.110       .  S
C2192      H2210   1.111       .  S
C2194      H2205   1.110       .  S
C2194      H2206   1.111       .  S
C2194      H2207   1.105       .  S
C2196      C2197   1.403   1_655  A
C2196      C2201   1.506       .  S
C2197      C2198   1.404       .  A
C2197      H2202   1.084       .  S
C2198      C2199   1.415   1_455  A
C2199      C2200   1.400       .  A
C2199      C2203   1.509       .  S
C2200      H2204   1.085       .  S
C2201      H2211   1.111   1_655  S
C2201      H2212   1.110       .  S
C2201      H2213   1.110       .  S
C2203      H2214   1.110       .  S
C2203      H2215   1.107   1_554  S
C2203      H2216   1.111       .  S
C2217      C2218   1.399       .  A
C2217      C2222   1.400       .  A
C2217      H2227   1.085       .  S
C2218      C2219   1.409       .  A
C2218      C2223   1.476       .  S
C2219      C2220   1.404       .  A
C2219      C2224   1.507       .  S
C2220      C2221   1.406       .  A
C2220      H2225   1.084       .  S
C2221      C2222   1.416       .  A
C2222      C2226   1.508       .  S
C2223      C2228   1.410       .  A
C2223      C2232   1.400       .  A
C2224      H2240   1.110       .  S
C2224      H2241   1.109       .  S
C2224      H2242   1.111       .  S
C2226      H2237   1.110       .  S
C2226      H2238   1.111       .  S
C2226      H2239   1.107       .  S
C2228      C2229   1.401       .  A
C2228      C2233   1.507       .  S
C2229      C2230   1.404       .  A
C2229      H2234   1.084       .  S
C2230      C2231   1.416       .  A
C2231      C2232   1.402       .  A
C2231      C2235   1.507       .  S
C2232      H2236   1.085       .  S
C2233      H2243   1.111       .  S
C2233      H2244   1.110       .  S
C2233      H2245   1.109       .  S
C2235      H2246   1.110       .  S
C2235      H2247   1.107       .  S
C2235      H2248   1.111       .  S
C2249      C2250   1.399       .  A
C2249      C2254   1.399       .  A
C2249      H2259   1.085       .  S
C2250      C2251   1.408       .  A
C2250      C2255   1.473       .  S
C2251      C2252   1.402       .  A
C2251      C2256   1.506       .  S
C2252      C2253   1.404       .  A
C2252      H2257   1.084       .  S
C2253      C2254   1.416       .  A
C2254      C2258   1.508       .  S
C2255      C2260   1.409       .  A
C2255      C2264   1.399       .  A
C2256      H2272   1.110       .  S
C2256      H2273   1.110       .  S
C2256      H2274   1.111       .  S
C2258      H2269   1.110       .  S
C2258      H2270   1.111       .  S
C2258      H2271   1.106       .  S
C2260      C2261   1.401       .  A
C2260      C2265   1.507       .  S
C2261      C2262   1.405       .  A
C2261      H2266   1.084       .  S
C2262      C2263   1.414       .  A
C2263      C2264   1.400       .  A
C2263      C2267   1.507       .  S
C2264      H2268   1.085       .  S
C2265      H2275   1.111       .  S
C2265      H2276   1.110       .  S
C2265      H2277   1.110       .  S
C2267      H2278   1.110       .  S
C2267      H2279   1.107       .  S
C2267      H2280   1.111       .  S
C2281      C2282   1.399       .  A
C2281      C2286   1.401       .  A
C2281      H2291   1.085       .  S
C2282      C2283   1.409       .  A
C2282      C2287   1.474       .  S
C2283      C2284   1.401       .  A
C2283      C2288   1.507       .  S
C2284      C2285   1.406       .  A
C2284      H2289   1.084       .  S
C2285      C2286   1.417       .  A
C2286      C2290   1.508       .  S
C2287      C2292   1.409       .  A
C2287      C2296   1.400   1_655  A
C2288      H2304   1.110       .  S
C2288      H2305   1.109       .  S
C2288      H2306   1.111       .  S
C2290      H2301   1.110       .  S
C2290      H2302   1.111       .  S
C2290      H2303   1.105       .  S
C2292      C2293   1.401   1_655  A
C2292      C2297   1.507       .  S
C2293      C2294   1.404       .  A
C2293      H2298   1.084       .  S
C2294      C2295   1.416       .  A
C2295      C2296   1.401       .  A
C2295      C2299   1.509       .  S
C2296      H2300   1.085       .  S
C2297      H2307   1.111       .  S
C2297      H2308   1.110       .  S
C2297      H2309   1.109       .  S
C2299      H2310   1.110       .  S
C2299      H2311   1.107       .  S
C2299      H2312   1.111       .  S
C2313      C2314   1.401       .  A
C2313      C2318   1.405       .  A
C2313      H2323   1.084       .  S
C2314      C2315   1.409       .  A
C2314      C2319   1.476       .  S
C2315      C2316   1.400       .  A
C2315      C2320   1.507       .  S
C2316      C2317   1.403       .  A
C2316      H2321   1.084       .  S
C2317      C2318   1.415       .  A
C2318      C2322   1.506       .  S
C2319      C2324   1.410       .  A
C2319      C2328   1.400       .  A
C2320      H2336   1.110       .  S
C2320      H2337   1.110       .  S
C2320      H2338   1.111       .  S
C2322      H2333   1.110       .  S
C2322      H2334   1.111       .  S
C2322      H2335   1.108       .  S
C2324      C2325   1.402       .  A
C2324      C2329   1.506       .  S
C2325      C2326   1.404       .  A
C2325      H2330   1.084       .  S
C2326      C2327   1.415       .  A
C2327      C2328   1.402       .  A
C2327      C2331   1.507       .  S
C2328      H2332   1.085       .  S
C2329      H2339   1.111       .  S
C2329      H2340   1.110       .  S
C2329      H2341   1.110       .  S
C2331      H2342   1.110       .  S
C2331      H2343   1.108       .  S
C2331      H2344   1.111       .  S
C2345      C2346   1.400       .  A
C2345      C2350   1.403       .  A
C2345      H2355   1.085       .  S
C2346      C2347   1.410       .  A
C2346      C2351   1.478       .  S
C2347      C2348   1.402       .  A
C2347      C2352   1.507       .  S
C2348      C2349   1.404       .  A
C2348      H2353   1.084       .  S
C2349      C2350   1.418       .  A
C2350      C2354   1.508       .  S
C2351      C2356   1.410       .  A
C2351      C2360   1.399       .  A
C2352      H2368   1.110       .  S
C2352      H2369   1.110       .  S
C2352      H2370   1.111       .  S
C2354      H2365   1.110       .  S
C2354      H2366   1.111       .  S
C2354      H2367   1.106       .  S
C2356      C2357   1.403       .  A
C2356      C2361   1.506       .  S
C2357      C2358   1.404       .  A
C2357      H2362   1.084       .  S
C2358      C2359   1.417       .  A
C2359      C2360   1.401       .  A
C2359      C2363   1.508       .  S
C2360      H2364   1.085       .  S
C2361      H2371   1.111       .  S
C2361      H2372   1.110       .  S
C2361      H2373   1.110       .  S
C2363      H2374   1.110       .  S
C2363      H2375   1.105       .  S
C2363      H2376   1.111       .  S
C2377      C2378   1.400       .  A
C2377      C2382   1.402       .  A
C2377      H2387   1.084       .  S
C2378      C2379   1.410       .  A
C2378      C2383   1.477       .  S
C2379      C2380   1.403       .  A
C2379      C2384   1.506       .  S
C2380      C2381   1.403       .  A
C2380      H2385   1.084       .  S
C2381      C2382   1.413       .  A
C2382      C2386   1.508       .  S
C2383      C2388   1.409       .  A
C2383      C2392   1.401       .  A
C2384      H2400   1.110       .  S
C2384      H2401   1.110       .  S
C2384      H2402   1.111       .  S
C2386      H2397   1.111       .  S
C2386      H2398   1.109       .  S
C2386      H2399   1.111   1_554  S
C2388      C2389   1.402       .  A
C2388      C2393   1.506       .  S
C2389      C2390   1.403       .  A
C2389      H2394   1.084       .  S
C2390      C2391   1.415       .  A
C2391      C2392   1.404       .  A
C2391      C2395   1.507       .  S
C2392      H2396   1.084       .  S
C2393      H2403   1.111       .  S
C2393      H2404   1.110       .  S
C2393      H2405   1.110       .  S
C2395      H2406   1.111       .  S
C2395      H2407   1.110       .  S
C2395      H2408   1.108       .  S
C2409      C2410   1.398       .  A
C2409      C2414   1.401       .  A
C2409      H2419   1.085       .  S
C2410      C2411   1.409       .  A
C2410      C2415   1.474       .  S
C2411      C2412   1.402       .  A
C2411      C2416   1.507       .  S
C2412      C2413   1.404       .  A
C2412      H2417   1.084       .  S
C2413      C2414   1.417       .  A
C2414      C2418   1.508       .  S
C2415      C2420   1.409       .  A
C2415      C2424   1.398       .  A
C2416      H2432   1.110       .  S
C2416      H2433   1.110       .  S
C2416      H2434   1.111       .  S
C2418      H2429   1.111       .  S
C2418      H2430   1.110       .  S
C2418      H2431   1.106       .  S
C2420      C2421   1.403       .  A
C2420      C2425   1.506       .  S
C2421      C2422   1.405       .  A
C2421      H2426   1.084       .  S
C2422      C2423   1.418       .  A
C2423      C2424   1.399       .  A
C2423      C2427   1.508       .  S
C2424      H2428   1.085       .  S
C2425      H2435   1.111       .  S
C2425      H2436   1.110       .  S
C2425      H2437   1.110       .  S
C2427      H2438   1.111       .  S
C2427      H2439   1.106       .  S
C2427      H2440   1.110       .  S
C2441      C2442   1.400       .  A
C2441      C2446   1.403       .  A
C2441      H2451   1.084       .  S
C2442      C2443   1.410       .  A
C2442      C2447   1.478       .  S
C2443      C2444   1.403       .  A
C2443      C2448   1.506       .  S
C2444      C2445   1.404       .  A
C2444      H2449   1.084       .  S
C2445      C2446   1.416       .  A
C2446      C2450   1.507       .  S
C2447      C2452   1.410       .  A
C2447      C2456   1.399       .  A
C2448      H2464   1.110       .  S
C2448      H2465   1.110       .  S
C2448      H2466   1.111       .  S
C2450      H2461   1.108       .  S
C2450      H2462   1.111       .  S
C2450      H2463   1.110       .  S
C2452      C2453   1.404       .  A
C2452      C2457   1.506       .  S
C2453      C2454   1.404       .  A
C2453      H2458   1.084       .  S
C2454      C2455   1.417       .  A
C2455      C2456   1.401       .  A
C2455      C2459   1.508       .  S
C2456      H2460   1.085       .  S
C2457      H2467   1.111       .  S
C2457      H2468   1.110       .  S
C2457      H2469   1.109       .  S
C2459      H2470   1.110       .  S
C2459      H2471   1.106       .  S
C2459      H2472   1.111       .  S
C2473      C2474   1.400       .  A
C2473      C2478   1.400       .  A
C2473      H2483   1.085       .  S
C2474      C2475   1.409       .  A
C2474      C2479   1.475       .  S
C2475      C2476   1.402       .  A
C2475      C2480   1.506       .  S
C2476      C2477   1.404       .  A
C2476      H2481   1.084       .  S
C2477      C2478   1.416       .  A
C2478      C2482   1.508       .  S
C2479      C2484   1.407       .  A
C2479      C2488   1.399       .  A
C2480      H2496   1.110       .  S
C2480      H2497   1.110       .  S
C2480      H2498   1.111       .  S
C2482      H2493   1.111       .  S
C2482      H2494   1.110       .  S
C2482      H2495   1.106       .  S
C2484      C2485   1.400       .  A
C2484      C2489   1.507       .  S
C2485      C2486   1.407       .  A
C2485      H2490   1.084       .  S
C2486      C2487   1.421       .  A
C2487      C2488   1.402       .  A
C2487      C2491   1.508       .  S
C2488      H2492   1.085       .  S
C2489      H2499   1.111       .  S
C2489      H2500   1.110       .  S
C2489      H2501   1.110       .  S
C2491      H2502   1.111       .  S
C2491      H2503   1.099       .  S
C2491      H2504   1.110       .  S
C2505      C2506   1.399       .  A
C2505      C2510   1.403       .  A
C2505      H2515   1.085       .  S
C2506      C2507   1.409       .  A
C2506      C2511   1.476       .  S
C2507      C2508   1.400       .  A
C2507      C2512   1.507       .  S
C2508      C2509   1.405       .  A
C2508      H2513   1.084       .  S
C2509      C2510   1.419       .  A
C2510      C2514   1.508       .  S
C2511      C2516   1.409       .  A
C2511      C2520   1.400       .  A
C2512      H2528   1.110       .  S
C2512      H2529   1.110       .  S
C2512      H2530   1.111       .  S
C2514      H2525   1.110       .  S
C2514      H2526   1.111       .  S
C2514      H2527   1.105       .  S
C2516      C2517   1.402       .  A
C2516      C2521   1.506       .  S
C2517      C2518   1.403       .  A
C2517      H2522   1.084       .  S
C2518      C2519   1.415       .  A
C2519      C2520   1.401       .  A
C2519      C2523   1.509       .  S
C2520      H2524   1.085       .  S
C2521      H2531   1.111       .  S
C2521      H2532   1.110       .  S
C2521      H2533   1.110       .  S
C2523      H2534   1.110       .  S
C2523      H2535   1.107       .  S
C2523      H2536   1.111       .  S
C2537      C2538   1.400       .  A
C2537      C2542   1.402       .  A
C2537      H2547   1.085       .  S
C2538      C2539   1.409       .  A
C2538      C2543   1.476       .  S
C2539      C2540   1.401       .  A
C2539      C2544   1.507       .  S
C2540      C2541   1.404       .  A
C2540      H2545   1.084       .  S
C2541      C2542   1.417       .  A
C2542      C2546   1.508       .  S
C2543      C2548   1.410       .  A
C2543      C2552   1.399       .  A
C2544      H2560   1.110       .  S
C2544      H2561   1.110       .  S
C2544      H2562   1.111       .  S
C2546      H2557   1.110       .  S
C2546      H2558   1.111       .  S
C2546      H2559   1.106       .  S
C2548      C2549   1.404       .  A
C2548      C2553   1.506       .  S
C2549      C2550   1.404       .  A
C2549      H2554   1.084       .  S
C2550      C2551   1.416       .  A
C2551      C2552   1.400       .  A
C2551      C2555   1.509       .  S
C2552      H2556   1.085       .  S
C2553      H2563   1.111       .  S
C2553      H2564   1.110       .  S
C2553      H2565   1.110       .  S
C2555      H2566   1.110       .  S
C2555      H2567   1.106       .  S
C2555      H2568   1.111       .  S
C2569      C2570   1.399       .  A
C2569      C2574   1.401       .  A
C2569      H2579   1.085       .  S
C2570      C2571   1.409       .  A
C2570      C2575   1.476       .  S
C2571      C2572   1.401       .  A
C2571      C2576   1.506       .  S
C2572      C2573   1.405       .  A
C2572      H2577   1.084       .  S
C2573      C2574   1.417       .  A
C2574      C2578   1.508       .  S
C2575      C2580   1.409       .  A
C2575      C2584   1.399       .  A
C2576      H2592   1.110       .  S
C2576      H2593   1.110       .  S
C2576      H2594   1.111       .  S
C2578      H2589   1.111       .  S
C2578      H2590   1.110       .  S
C2578      H2591   1.106       .  S
C2580      C2581   1.402       .  A
C2580      C2585   1.507       .  S
C2581      C2582   1.404       .  A
C2581      H2586   1.084       .  S
C2582      C2583   1.417       .  A
C2583      C2584   1.402       .  A
C2583      C2587   1.508       .  S
C2584      H2588   1.084       .  S
C2585      H2595   1.111       .  S
C2585      H2596   1.110       .  S
C2585      H2597   1.110       .  S
C2587      H2598   1.111       .  S
C2587      H2599   1.111   1_565  S
C2587      H2600   1.109       .  S
C2601      C2602   1.400       .  A
C2601      C2606   1.402       .  A
C2601      H2611   1.084       .  S
C2602      C2603   1.409       .  A
C2602      C2607   1.475       .  S
C2603      C2604   1.401       .  A
C2603      C2608   1.506       .  S
C2604      C2605   1.404       .  A
C2604      H2609   1.084       .  S
C2605      C2606   1.414       .  A
C2606      C2610   1.507       .  S
C2607      C2612   1.409       .  A
C2607      C2616   1.401       .  A
C2608      H2624   1.110       .  S
C2608      H2625   1.110       .  S
C2608      H2626   1.111       .  S
C2610      H2621   1.108       .  S
C2610      H2622   1.111       .  S
C2610      H2623   1.110       .  S
C2612      C2613   1.400       .  A
C2612      C2617   1.507       .  S
C2613      C2614   1.404       .  A
C2613      H2618   1.084       .  S
C2614      C2615   1.415       .  A
C2615      C2616   1.404       .  A
C2615      C2619   1.507       .  S
C2616      H2620   1.084       .  S
C2617      H2627   1.111       .  S
C2617      H2628   1.110       .  S
C2617      H2629   1.110       .  S
C2619      H2630   1.108       .  S
C2619      H2631   1.110       .  S
C2619      H2632   1.111       .  S
C2633      C2634   1.401       .  A
C2633      C2638   1.404       .  A
C2633      H2643   1.085       .  S
C2634      C2635   1.409       .  A
C2634      C2639   1.479       .  S
C2635      C2636   1.402       .  A
C2635      C2640   1.507       .  S
C2636      C2637   1.405       .  A
C2636      H2641   1.084       .  S
C2637      C2638   1.417       .  A
C2638      C2642   1.508       .  S
C2639      C2644   1.410       .  A
C2639      C2648   1.399       .  A
C2640      H2656   1.110       .  S
C2640      H2657   1.110       .  S
C2640      H2658   1.111       .  S
C2642      H2653   1.111       .  S
C2642      H2654   1.110       .  S
C2642      H2655   1.106       .  S
C2644      C2645   1.405       .  A
C2644      C2649   1.506       .  S
C2645      C2646   1.405       .  A
C2645      H2650   1.084       .  S
C2646      C2647   1.417       .  A
C2647      C2648   1.403       .  A
C2647      C2651   1.507       .  S
C2648      H2652   1.084       .  S
C2649      H2659   1.111       .  S
C2649      H2660   1.110       .  S
C2649      H2661   1.110       .  S
C2651      H2662   1.111       .  S
C2651      H2663   1.110       .  S
C2651      H2664   1.107       .  S
C2665      C2666   1.400       .  A
C2665      C2670   1.402       .  A
C2665      H2675   1.085       .  S
C2666      C2667   1.411       .  A
C2666      C2671   1.482       .  S
C2667      C2668   1.406       .  A
C2667      C2672   1.506       .  S
C2668      C2669   1.405       .  A
C2668      H2673   1.084       .  S
C2669      C2670   1.417       .  A
C2670      C2674   1.509       .  S
C2671      C2676   1.410       .  A
C2671      C2680   1.401       .  A
C2672      H2688   1.110       .  S
C2672      H2689   1.110       .  S
C2672      H2690   1.111       .  S
C2674      H2685   1.111       .  S
C2674      H2686   1.110       .  S
C2674      H2687   1.107       .  S
C2676      C2677   1.404       .  A
C2676      C2681   1.506       .  S
C2677      C2678   1.405       .  A
C2677      H2682   1.084       .  S
C2678      C2679   1.419       .  A
C2679      C2680   1.404       .  A
C2679      C2683   1.508       .  S
C2680      H2684   1.085       .  S
C2681      H2691   1.111       .  S
C2681      H2692   1.110       .  S
C2681      H2693   1.110       .  S
C2683      H2694   1.111       .  S
C2683      H2695   1.106       .  S
C2683      H2696   1.110       .  S
C2697      C2698   1.400       .  A
C2697      C2702   1.403       .  A
C2697      H2707   1.084       .  S
C2698      C2699   1.409       .  A
C2698      C2703   1.475       .  S
C2699      C2700   1.401       .  A
C2699      C2704   1.506       .  S
C2700      C2701   1.405       .  A
C2700      H2705   1.084       .  S
C2701      C2702   1.414       .  A
C2702      C2706   1.507       .  S
C2703      C2708   1.410       .  A
C2703      C2712   1.400       .  A
C2704      H2720   1.110       .  S
C2704      H2721   1.110       .  S
C2704      H2722   1.111       .  S
C2706      H2717   1.111       .  S
C2706      H2718   1.110       .  S
C2706      H2719   1.107       .  S
C2708      C2709   1.401       .  A
C2708      C2713   1.507       .  S
C2709      C2710   1.402       .  A
C2709      H2714   1.084       .  S
C2710      C2711   1.414       .  A
C2711      C2712   1.402       .  A
C2711      C2715   1.507       .  S
C2712      H2716   1.084       .  S
C2713      H2723   1.111       .  S
C2713      H2724   1.110       .  S
C2713      H2725   1.110       .  S
C2715      H2726   1.108       .  S
C2715      H2727   1.110       .  S
C2715      H2728   1.111       .  S
C2729      C2730   1.401       .  A
C2729      C2734   1.403       .  A
C2729      H2739   1.084       .  S
C2730      C2731   1.411       .  A
C2730      C2735   1.480       .  S
C2731      C2732   1.403       .  A
C2731      C2736   1.506       .  S
C2732      C2733   1.404       .  A
C2732      H2737   1.084       .  S
C2733      C2734   1.415       .  A
C2734      C2738   1.507       .  S
C2735      C2740   1.409       .  A
C2735      C2744   1.401       .  A
C2736      H2752   1.110       .  S
C2736      H2753   1.110       .  S
C2736      H2754   1.111       .  S
C2738      H2749   1.111       .  S
C2738      H2750   1.110       .  S
C2738      H2751   1.108       .  S
C2740      C2741   1.404       .  A
C2740      C2745   1.506       .  S
C2741      C2742   1.405       .  A
C2741      H2746   1.084       .  S
C2742      C2743   1.417       .  A
C2743      C2744   1.403       .  A
C2743      C2747   1.508       .  S
C2744      H2748   1.085       .  S
C2745      H2755   1.111       .  S
C2745      H2756   1.110       .  S
C2745      H2757   1.110       .  S
C2747      H2758   1.111       .  S
C2747      H2759   1.107       .  S
C2747      H2760   1.110       .  S
C2761      C2762   1.399       .  A
C2761      C2766   1.401       .  A
C2761      H2771   1.085       .  S
C2762      C2763   1.408       .  A
C2762      C2767   1.475       .  S
C2763      C2764   1.402       .  A
C2763      C2768   1.506       .  S
C2764      C2765   1.405       .  A
C2764      H2769   1.084       .  S
C2765      C2766   1.418       .  A
C2766      C2770   1.509       .  S
C2767      C2772   1.410       .  A
C2767      C2776   1.399       .  A
C2768      H2784   1.110       .  S
C2768      H2785   1.110       .  S
C2768      H2786   1.111       .  S
C2770      H2781   1.111       .  S
C2770      H2782   1.110       .  S
C2770      H2783   1.105       .  S
C2772      C2773   1.401       .  A
C2772      C2777   1.507       .  S
C2773      C2774   1.403       .  A
C2773      H2778   1.084       .  S
C2774      C2775   1.417       .  A
C2775      C2776   1.402       .  A
C2775      C2779   1.508       .  S
C2776      H2780   1.085       .  S
C2777      H2787   1.111       .  S
C2777      H2788   1.110       .  S
C2777      H2789   1.110       .  S
C2779      H2790   1.111       .  S
C2779      H2791   1.106       .  S
C2779      H2792   1.110       .  S
C2793      C2794   1.399       .  A
C2793      C2798   1.403       .  A
C2793      H2803   1.085       .  S
C2794      C2795   1.409       .  A
C2794      C2799   1.480       .  S
C2795      C2796   1.404       .  A
C2795      C2800   1.506       .  S
C2796      C2797   1.406       .  A
C2796      H2801   1.084       .  S
C2797      C2798   1.420       .  A
C2798      C2802   1.508       .  S
C2799      C2804   1.409       .  A
C2799      C2808   1.400       .  A
C2800      H2816   1.110       .  S
C2800      H2817   1.110       .  S
C2800      H2818   1.111       .  S
C2802      H2813   1.110       .  S
C2802      H2814   1.111       .  S
C2802      H2815   1.105       .  S
C2804      C2805   1.405       .  A
C2804      C2809   1.506       .  S
C2805      C2806   1.405       .  A
C2805      H2810   1.084       .  S
C2806      C2807   1.417       .  A
C2807      C2808   1.402       .  A
C2807      C2811   1.508       .  S
C2808      H2812   1.085       .  S
C2809      H2819   1.111       .  S
C2809      H2820   1.110       .  S
C2809      H2821   1.110       .  S
C2811      H2822   1.110       .  S
C2811      H2823   1.106       .  S
C2811      H2824   1.111       .  S
C2825      C2826   1.400       .  A
C2825      C2830   1.404       .  A
C2825      H2835   1.084       .  S
C2826      C2827   1.409       .  A
C2826      C2831   1.479       .  S
C2827      C2828   1.403       .  A
C2827      C2832   1.506       .  S
C2828      C2829   1.405       .  A
C2828      H2833   1.084       .  S
C2829      C2830   1.417       .  A
C2830      C2834   1.507       .  S
C2831      C2836   1.409       .  A
C2831      C2840   1.401       .  A
C2832      H2848   1.110       .  S
C2832      H2849   1.110       .  S
C2832      H2850   1.111       .  S
C2834      H2845   1.107       .  S
C2834      H2846   1.111       .  S
C2834      H2847   1.110       .  S
C2836      C2837   1.402       .  A
C2836      C2841   1.507       .  S
C2837      C2838   1.405       .  A
C2837      H2842   1.084       .  S
C2838      C2839   1.417       .  A
C2839      C2840   1.405       .  A
C2839      C2843   1.507       .  S
C2840      H2844   1.084       .  S
C2841      H2851   1.111       .  S
C2841      H2852   1.110       .  S
C2841      H2853   1.110       .  S
C2843      H2854   1.110       .  S
C2843      H2855   1.107       .  S
C2843      H2856   1.111       .  S
C2857      C2858   1.400       .  A
C2857      C2862   1.403       .  A
C2857      H2867   1.084       .  S
C2858      C2859   1.408       .  A
C2858      C2863   1.476       .  S
C2859      C2860   1.403       .  A
C2859      C2864   1.506       .  S
C2860      C2861   1.405       .  A
C2860      H2865   1.084       .  S
C2861      C2862   1.415       .  A
C2862      C2866   1.507       .  S
C2863      C2868   1.410       .  A
C2863      C2872   1.400       .  A
C2864      H2880   1.110       .  S
C2864      H2881   1.110       .  S
C2864      H2882   1.111       .  S
C2866      H2877   1.107       .  S
C2866      H2878   1.111       .  S
C2866      H2879   1.110       .  S
C2868      C2869   1.403       .  A
C2868      C2873   1.506       .  S
C2869      C2870   1.403       .  A
C2869      H2874   1.084       .  S
C2870      C2871   1.415       .  A
C2871      C2872   1.400       .  A
C2871      C2875   1.508       .  S
C2872      H2876   1.085       .  S
C2873      H2883   1.111       .  S
C2873      H2884   1.110       .  S
C2873      H2885   1.110       .  S
C2875      H2886   1.110       .  S
C2875      H2887   1.108       .  S
C2875      H2888   1.111       .  S
C2889      C2890   1.400       .  A
C2889      C2894   1.403       .  A
C2889      H2899   1.085       .  S
C2890      C2891   1.408       .  A
C2890      C2895   1.476       .  S
C2891      C2892   1.401       .  A
C2891      C2896   1.507       .  S
C2892      C2893   1.405       .  A
C2892      H2897   1.084       .  S
C2893      C2894   1.418       .  A
C2894      C2898   1.507       .  S
C2895      C2900   1.409       .  A
C2895      C2904   1.400       .  A
C2896      H2912   1.110       .  S
C2896      H2913   1.110       .  S
C2896      H2914   1.111       .  S
C2898      H2909   1.111       .  S
C2898      H2910   1.110       .  S
C2898      H2911   1.106       .  S
C2900      C2901   1.402       .  A
C2900      C2905   1.506       .  S
C2901      C2902   1.404       .  A
C2901      H2906   1.084       .  S
C2902      C2903   1.417       .  A
C2903      C2904   1.401       .  A
C2903      C2907   1.509       .  S
C2904      H2908   1.085       .  S
C2905      H2915   1.111       .  S
C2905      H2916   1.110       .  S
C2905      H2917   1.110       .  S
C2907      H2918   1.111       .  S
C2907      H2919   1.107       .  S
C2907      H2920   1.110       .  S
C2921      C2922   1.400       .  A
C2921      C2926   1.404       .  A
C2921      H2931   1.084       .  S
C2922      C2923   1.408       .  A
C2922      C2927   1.478       .  S
C2923      C2924   1.402       .  A
C2923      C2928   1.506       .  S
C2924      C2925   1.406       .  A
C2924      H2929   1.084       .  S
C2925      C2926   1.417       .  A
C2926      C2930   1.507       .  S
C2927      C2932   1.408       .  A
C2927      C2936   1.399       .  A
C2928      H2944   1.110       .  S
C2928      H2945   1.110       .  S
C2928      H2946   1.111       .  S
C2930      H2941   1.111       .  S
C2930      H2942   1.107       .  S
C2930      H2943   1.110       .  S
C2932      C2933   1.402       .  A
C2932      C2937   1.507       .  S
C2933      C2934   1.407       .  A
C2933      H2938   1.084       .  S
C2934      C2935   1.419       .  A
C2935      C2936   1.404       .  A
C2935      C2939   1.507       .  S
C2936      H2940   1.084       .  S
C2937      H2947   1.111       .  S
C2937      H2948   1.110       .  S
C2937      H2949   1.110       .  S
C2939      H2950   1.111       .  S
C2939      H2951   1.111       .  S
C2939      H2952   1.110       .  S
C2953      C2954   1.400       .  A
C2953      C2958   1.404       .  A
C2953      H2963   1.085       .  S
C2954      C2955   1.410       .  A
C2954      C2959   1.480       .  S
C2955      C2956   1.403       .  A
C2955      C2960   1.507       .  S
C2956      C2957   1.405       .  A
C2956      H2961   1.084       .  S
C2957      C2958   1.418       .  A
C2958      C2962   1.508       .  S
C2959      C2964   1.410       .  A
C2959      C2968   1.401       .  A
C2960      H2976   1.110       .  S
C2960      H2977   1.110       .  S
C2960      H2978   1.111       .  S
C2962      H2973   1.110       .  S
C2962      H2974   1.111       .  S
C2962      H2975   1.106       .  S
C2964      C2965   1.403   1_655  A
C2964      C2969   1.506       .  S
C2965      C2966   1.404       .  A
C2965      H2970   1.084       .  S
C2966      C2967   1.416   1_455  A
C2967      C2968   1.403       .  A
C2967      C2971   1.508       .  S
C2968      H2972   1.084       .  S
C2969      H2979   1.111   1_655  S
C2969      H2980   1.110       .  S
C2969      H2981   1.110       .  S
C2971      H2982   1.110       .  S
C2971      H2983   1.107       .  S
C2971      H2984   1.111       .  S
C2985      C2986   1.400       .  A
C2985      C2990   1.403       .  A
C2985      H2995   1.084       .  S
C2986      C2987   1.410       .  A
C2986      C2991   1.479       .  S
C2987      C2988   1.404       .  A
C2987      C2992   1.506       .  S
C2988      C2989   1.404       .  A
C2988      H2993   1.084       .  S
C2989      C2990   1.416       .  A
C2990      C2994   1.507       .  S
C2991      C2996   1.409       .  A
C2991      C3000   1.400       .  A
C2992      H3008   1.110       .  S
C2992      H3009   1.110       .  S
C2992      H3010   1.111       .  S
C2994      H3005   1.111       .  S
C2994      H3006   1.108       .  S
C2994      H3007   1.110       .  S
C2996      C2997   1.402       .  A
C2996      C3001   1.507       .  S
C2997      C2998   1.405       .  A
C2997      H3002   1.084       .  S
C2998      C2999   1.418       .  A
C2999      C3000   1.405       .  A
C2999      C3003   1.507       .  S
C3000      H3004   1.084       .  S
C3001      H3011   1.111       .  S
C3001      H3012   1.110       .  S
C3001      H3013   1.110       .  S
C3003      H3014   1.111       .  S
C3003      H3015   1.110       .  S
C3003      H3016   1.107       .  S
C3017      C3018   1.400       .  A
C3017      C3022   1.401       .  A
C3017      H3027   1.085       .  S
C3018      C3019   1.410       .  A
C3018      C3023   1.480       .  S
C3019      C3020   1.404       .  A
C3019      C3024   1.506       .  S
C3020      C3021   1.406       .  A
C3020      H3025   1.084       .  S
C3021      C3022   1.417       .  A
C3022      C3026   1.508       .  S
C3023      C3028   1.411       .  A
C3023      C3032   1.400       .  A
C3024      H3040   1.110       .  S
C3024      H3041   1.110       .  S
C3024      H3042   1.111       .  S
C3026      H3037   1.110       .  S
C3026      H3038   1.111       .  S
C3026      H3039   1.106       .  S
C3028      C3029   1.403       .  A
C3028      C3033   1.507       .  S
C3029      C3030   1.404       .  A
C3029      H3034   1.084       .  S
C3030      C3031   1.417       .  A
C3031      C3032   1.402       .  A
C3031      C3035   1.507       .  S
C3032      H3036   1.084       .  S
C3033      H3043   1.111       .  S
C3033      H3044   1.110       .  S
C3033      H3045   1.110       .  S
C3035      H3046   1.110       .  S
C3035      H3047   1.107       .  S
C3035      H3048   1.111       .  S
C3049      C3050   1.399       .  A
C3049      C3054   1.404       .  A
C3049      H3059   1.084       .  S
C3050      C3051   1.407       .  A
C3050      C3055   1.476       .  S
C3051      C3052   1.401       .  A
C3051      C3056   1.507       .  S
C3052      C3053   1.408       .  A
C3052      H3057   1.084       .  S
C3053      C3054   1.420       .  A
C3054      C3058   1.506       .  S
C3055      C3060   1.408       .  A
C3055      C3064   1.399       .  A
C3056      H3072   1.110       .  S
C3056      H3073   1.110       .  S
C3056      H3074   1.111       .  S
C3058      H3069   1.107       .  S
C3058      H3070   1.111       .  S
C3058      H3071   1.110       .  S
C3060      C3061   1.403       .  A
C3060      C3065   1.506       .  S
C3061      C3062   1.405       .  A
C3061      H3066   1.084       .  S
C3062      C3063   1.418       .  A
C3063      C3064   1.401       .  A
C3063      C3067   1.509       .  S
C3064      H3068   1.085       .  S
C3065      H3075   1.111       .  S
C3065      H3076   1.110       .  S
C3065      H3077   1.110       .  S
C3067      H3078   1.110       .  S
C3067      H3079   1.106   1_565  S
C3067      H3080   1.111       .  S
C3081      C3082   1.399       .  A
C3081      C3086   1.399       .  A
C3081      H3091   1.085       .  S
C3082      C3083   1.410       .  A
C3082      C3087   1.476       .  S
C3083      C3084   1.403       .  A
C3083      C3088   1.506       .  S
C3084      C3085   1.404       .  A
C3084      H3089   1.084       .  S
C3085      C3086   1.416       .  A
C3086      C3090   1.508       .  S
C3087      C3092   1.410       .  A
C3087      C3096   1.399       .  A
C3088      H3104   1.110       .  S
C3088      H3105   1.110       .  S
C3088      H3106   1.111       .  S
C3090      H3101   1.111       .  S
C3090      H3102   1.110       .  S
C3090      H3103   1.106       .  S
C3092      C3093   1.403       .  A
C3092      C3097   1.506       .  S
C3093      C3094   1.403       .  A
C3093      H3098   1.084       .  S
C3094      C3095   1.416       .  A
C3095      C3096   1.402       .  A
C3095      C3099   1.507       .  S
C3096      H3100   1.084       .  S
C3097      H3107   1.111       .  S
C3097      H3108   1.110       .  S
C3097      H3109   1.110       .  S
C3099      H3110   1.111       .  S
C3099      H3111   1.110       .  S
C3099      H3112   1.108       .  S
C3113      C3114   1.399       .  A
C3113      C3118   1.403       .  A
C3113      H3123   1.085       .  S
C3114      C3115   1.409       .  A
C3114      C3119   1.479       .  S
C3115      C3116   1.403       .  A
C3115      C3120   1.507       .  S
C3116      C3117   1.406       .  A
C3116      H3121   1.084       .  S
C3117      C3118   1.419       .  A
C3118      C3122   1.508       .  S
C3119      C3124   1.410       .  A
C3119      C3128   1.400       .  A
C3120      H3136   1.110       .  S
C3120      H3137   1.109       .  S
C3120      H3138   1.111       .  S
C3122      H3133   1.110       .  S
C3122      H3134   1.111       .  S
C3122      H3135   1.106       .  S
C3124      C3125   1.403       .  A
C3124      C3129   1.507       .  S
C3125      C3126   1.404       .  A
C3125      H3130   1.084       .  S
C3126      C3127   1.417       .  A
C3127      C3128   1.403       .  A
C3127      C3131   1.508       .  S
C3128      H3132   1.085       .  S
C3129      H3139   1.111       .  S
C3129      H3140   1.110       .  S
C3129      H3141   1.109       .  S
C3131      H3142   1.110       .  S
C3131      H3143   1.106       .  S
C3131      H3144   1.111       .  S
C3145      C3146   1.399       .  A
C3145      C3150   1.403       .  A
C3145      H3155   1.085       .  S
C3146      C3147   1.409       .  A
C3146      C3151   1.478       .  S
C3147      C3148   1.403       .  A
C3147      C3152   1.507       .  S
C3148      C3149   1.405       .  A
C3148      H3153   1.084       .  S
C3149      C3150   1.418       .  A
C3150      C3154   1.508       .  S
C3151      C3156   1.410       .  A
C3151      C3160   1.400       .  A
C3152      H3168   1.110       .  S
C3152      H3169   1.110       .  S
C3152      H3170   1.111       .  S
C3154      H3165   1.110       .  S
C3154      H3166   1.111       .  S
C3154      H3167   1.106       .  S
C3156      C3157   1.403   1_655  A
C3156      C3161   1.506   1_655  S
C3157      C3158   1.404       .  A
C3157      H3162   1.084       .  S
C3158      C3159   1.417   1_455  A
C3159      C3160   1.402       .  A
C3159      C3163   1.509       .  S
C3160      H3164   1.085       .  S
C3161      H3171   1.111       .  S
C3161      H3172   1.110       .  S
C3161      H3173   1.110   1_455  S
C3163      H3174   1.110       .  S
C3163      H3175   1.106   1_655  S
C3163      H3176   1.111       .  S
C3177      C3178   1.401       .  A
C3177      C3182   1.403       .  A
C3177      H3187   1.085       .  S
C3178      C3179   1.411       .  A
C3178      C3183   1.481       .  S
C3179      C3180   1.403       .  A
C3179      C3184   1.507       .  S
C3180      C3181   1.404       .  A
C3180      H3185   1.084       .  S
C3181      C3182   1.416       .  A
C3182      C3186   1.507       .  S
C3183      C3188   1.411       .  A
C3183      C3192   1.401       .  A
C3184      H3200   1.110       .  S
C3184      H3201   1.110       .  S
C3184      H3202   1.111       .  S
C3186      H3197   1.111       .  S
C3186      H3198   1.110       .  S
C3186      H3199   1.107       .  S
C3188      C3189   1.403       .  A
C3188      C3193   1.507       .  S
C3189      C3190   1.403       .  A
C3189      H3194   1.084       .  S
C3190      C3191   1.416       .  A
C3191      C3192   1.403       .  A
C3191      C3195   1.508       .  S
C3192      H3196   1.084       .  S
C3193      H3203   1.111       .  S
C3193      H3204   1.110       .  S
C3193      H3205   1.110       .  S
C3195      H3206   1.111       .  S
C3195      H3207   1.107       .  S
C3195      H3208   1.110       .  S
C3209      C3210   1.400       .  A
C3209      C3214   1.403       .  A
C3209      H3219   1.085       .  S
C3210      C3211   1.409       .  A
C3210      C3215   1.480       .  S
C3211      C3212   1.403       .  A
C3211      C3216   1.506       .  S
C3212      C3213   1.405       .  A
C3212      H3217   1.084       .  S
C3213      C3214   1.419       .  A
C3214      C3218   1.508       .  S
C3215      C3220   1.409       .  A
C3215      C3224   1.400       .  A
C3216      H3232   1.110       .  S
C3216      H3233   1.110       .  S
C3216      H3234   1.111       .  S
C3218      H3229   1.111       .  S
C3218      H3230   1.110       .  S
C3218      H3231   1.106       .  S
C3220      C3221   1.403       .  A
C3220      C3225   1.507       .  S
C3221      C3222   1.406       .  A
C3221      H3226   1.084       .  S
C3222      C3223   1.419       .  A
C3223      C3224   1.405       .  A
C3223      C3227   1.508       .  S
C3224      H3228   1.085       .  S
C3225      H3235   1.111       .  S
C3225      H3236   1.110       .  S
C3225      H3237   1.110       .  S
C3227      H3238   1.111       .  S
C3227      H3239   1.106       .  S
C3227      H3240   1.110       .  S
C3241      C3242   1.400       .  A
C3241      C3246   1.404       .  A
C3241      H3251   1.084       .  S
C3242      C3243   1.410       .  A
C3242      C3247   1.477       .  S
C3243      C3244   1.400       .  A
C3243      C3248   1.508       .  S
C3244      C3245   1.404       .  A
C3244      H3249   1.084       .  S
C3245      C3246   1.418       .  A
C3246      C3250   1.507       .  S
C3247      C3252   1.409       .  A
C3247      C3256   1.400       .  A
C3248      H3264   1.110       .  S
C3248      H3265   1.110       .  S
C3248      H3266   1.111       .  S
C3250      H3261   1.110       .  S
C3250      H3262   1.111       .  S
C3250      H3263   1.106       .  S
C3252      C3253   1.400       .  A
C3252      C3257   1.507       .  S
C3253      C3254   1.404       .  A
C3253      H3258   1.084       .  S
C3254      C3255   1.419       .  A
C3255      C3256   1.403       .  A
C3255      C3259   1.509       .  S
C3256      H3260   1.085       .  S
C3257      H3267   1.111       .  S
C3257      H3268   1.110       .  S
C3257      H3269   1.110       .  S
C3259      H3270   1.110       .  S
C3259      H3271   1.105       .  S
C3259      H3272   1.111       .  S
C3273      C3274   1.399       .  A
C3273      C3278   1.403       .  A
C3273      H3283   1.085       .  S
C3274      C3275   1.409       .  A
C3274      C3279   1.476       .  S
C3275      C3276   1.402       .  A
C3275      C3280   1.507       .  S
C3276      C3277   1.405       .  A
C3276      H3281   1.084       .  S
C3277      C3278   1.419       .  A
C3278      C3282   1.508       .  S
C3279      C3284   1.408       .  A
C3279      C3288   1.399       .  A
C3280      H3296   1.110       .  S
C3280      H3297   1.109       .  S
C3280      H3298   1.111       .  S
C3282      H3293   1.110       .  S
C3282      H3294   1.111       .  S
C3282      H3295   1.106       .  S
C3284      C3285   1.402       .  A
C3284      C3289   1.506       .  S
C3285      C3286   1.406       .  A
C3285      H3290   1.084       .  S
C3286      C3287   1.419       .  A
C3287      C3288   1.401       .  A
C3287      C3291   1.506       .  S
C3288      H3292   1.085       .  S
C3289      H3299   1.111       .  S
C3289      H3300   1.110       .  S
C3289      H3301   1.110       .  S
C3291      H3302   1.110       .  S
C3291      H3303   1.101       .  S
C3291      H3304   1.111       .  S
C3305      C3306   1.402       .  A
C3305      C3310   1.402       .  A
C3305      H3315   1.084       .  S
C3306      C3307   1.412       .  A
C3306      C3311   1.480       .  S
C3307      C3308   1.402       .  A
C3307      C3312   1.507       .  S
C3308      C3309   1.403       .  A
C3308      H3313   1.084       .  S
C3309      C3310   1.413       .  A
C3310      C3314   1.507       .  S
C3311      C3316   1.411       .  A
C3311      C3320   1.401       .  A
C3312      H3328   1.109       .  S
C3312      H3329   1.110       .  S
C3312      H3330   1.111       .  S
C3314      H3325   1.111       .  S
C3314      H3326   1.108       .  S
C3314      H3327   1.111       .  S
C3316      C3317   1.402       .  A
C3316      C3321   1.508       .  S
C3317      C3318   1.405       .  A
C3317      H3322   1.084       .  S
C3318      C3319   1.416       .  A
C3319      C3320   1.403       .  A
C3319      C3323   1.507       .  S
C3320      H3324   1.084       .  S
C3321      H3331   1.111       .  S
C3321      H3332   1.109       .  S
C3321      H3333   1.110       .  S
C3323      H3334   1.111       .  S
C3323      H3335   1.111       .  S
C3323      H3336   1.109       .  S
C3337      C3338   1.399       .  A
C3337      C3342   1.402       .  A
C3337      H3347   1.085       .  S
C3338      C3339   1.409       .  A
C3338      C3343   1.476       .  S
C3339      C3340   1.401       .  A
C3339      C3344   1.507       .  S
C3340      C3341   1.404       .  A
C3340      H3345   1.084       .  S
C3341      C3342   1.418       .  A
C3342      C3346   1.508       .  S
C3343      C3348   1.409       .  A
C3343      C3352   1.400       .  A
C3344      H3360   1.110       .  S
C3344      H3361   1.110       .  S
C3344      H3362   1.111       .  S
C3346      H3357   1.110       .  S
C3346      H3358   1.111       .  S
C3346      H3359   1.106       .  S
C3348      C3349   1.402       .  A
C3348      C3353   1.506       .  S
C3349      C3350   1.404       .  A
C3349      H3354   1.084       .  S
C3350      C3351   1.417       .  A
C3351      C3352   1.402       .  A
C3351      C3355   1.509       .  S
C3352      H3356   1.085       .  S
C3353      H3363   1.111       .  S
C3353      H3364   1.110       .  S
C3353      H3365   1.110       .  S
C3355      H3366   1.110       .  S
C3355      H3367   1.106       .  S
C3355      H3368   1.111       .  S
C3369      C3370   1.399       .  A
C3369      C3374   1.401       .  A
C3369      H3379   1.084       .  S
C3370      C3371   1.409       .  A
C3370      C3375   1.476       .  S
C3371      C3372   1.403       .  A
C3371      C3376   1.506       .  S
C3372      C3373   1.404       .  A
C3372      H3377   1.084       .  S
C3373      C3374   1.416       .  A
C3374      C3378   1.508       .  S
C3375      C3380   1.409       .  A
C3375      C3384   1.401       .  A
C3376      H3392   1.110       .  S
C3376      H3393   1.110       .  S
C3376      H3394   1.111       .  S
C3378      H3389   1.107       .  S
C3378      H3390   1.111       .  S
C3378      H3391   1.110       .  S
C3380      C3381   1.400       .  A
C3380      C3385   1.507       .  S
C3381      C3382   1.403       .  A
C3381      H3386   1.084       .  S
C3382      C3383   1.415       .  A
C3383      C3384   1.403       .  A
C3383      C3387   1.507       .  S
C3384      H3388   1.084       .  S
C3385      H3395   1.111       .  S
C3385      H3396   1.110       .  S
C3385      H3397   1.110       .  S
C3387      H3398   1.110       .  S
C3387      H3399   1.107       .  S
C3387      H3400   1.111       .  S
C3401      C3402   1.401       .  A
C3401      C3406   1.404       .  A
C3401      H3411   1.085       .  S
C3402      C3403   1.409       .  A
C3402      C3407   1.478       .  S
C3403      C3404   1.402       .  A
C3403      C3408   1.506       .  S
C3404      C3405   1.404       .  A
C3404      H3409   1.084       .  S
C3405      C3406   1.418       .  A
C3406      C3410   1.508       .  S
C3407      C3412   1.410       .  A
C3407      C3416   1.399       .  A
C3408      H3424   1.110       .  S
C3408      H3425   1.110       .  S
C3408      H3426   1.111       .  S
C3410      H3421   1.110       .  S
C3410      H3422   1.111       .  S
C3410      H3423   1.105       .  S
C3412      C3413   1.406       .  A
C3412      C3417   1.505       .  S
C3413      C3414   1.404       .  A
C3413      H3418   1.084       .  S
C3414      C3415   1.416       .  A
C3415      C3416   1.400       .  A
C3415      C3419   1.508       .  S
C3416      H3420   1.085       .  S
C3417      H3427   1.111       .  S
C3417      H3428   1.110       .  S
C3417      H3429   1.110       .  S
C3419      H3430   1.110       .  S
C3419      H3431   1.107       .  S
C3419      H3432   1.111       .  S
C3433      C3434   1.399       .  A
C3433      C3438   1.401       .  A
C3433      H3443   1.085       .  S
C3434      C3435   1.409       .  A
C3434      C3439   1.478       .  S
C3435      C3436   1.404       .  A
C3435      C3440   1.506       .  S
C3436      C3437   1.406       .  A
C3436      H3441   1.084       .  S
C3437      C3438   1.419       .  A
C3438      C3442   1.508       .  S
C3439      C3444   1.410       .  A
C3439      C3448   1.400       .  A
C3440      H3456   1.110       .  S
C3440      H3457   1.110       .  S
C3440      H3458   1.111       .  S
C3442      H3453   1.110       .  S
C3442      H3454   1.111       .  S
C3442      H3455   1.106       .  S
C3444      C3445   1.404       .  A
C3444      C3449   1.506       .  S
C3445      C3446   1.404       .  A
C3445      H3450   1.084       .  S
C3446      C3447   1.416       .  A
C3447      C3448   1.401       .  A
C3447      C3451   1.509       .  S
C3448      H3452   1.085       .  S
C3449      H3459   1.111       .  S
C3449      H3460   1.110       .  S
C3449      H3461   1.110       .  S
C3451      H3462   1.110       .  S
C3451      H3463   1.107       .  S
C3451      H3464   1.111       .  S
C3465      C3466   1.400       .  A
C3465      C3470   1.403       .  A
C3465      H3475   1.084       .  S
C3466      C3467   1.409       .  A
C3466      C3471   1.477       .  S
C3467      C3468   1.400       .  A
C3467      C3472   1.507       .  S
C3468      C3469   1.404       .  A
C3468      H3473   1.084       .  S
C3469      C3470   1.417       .  A
C3470      C3474   1.507       .  S
C3471      C3476   1.410       .  A
C3471      C3480   1.400       .  A
C3472      H3488   1.110       .  S
C3472      H3489   1.110       .  S
C3472      H3490   1.111       .  S
C3474      H3485   1.111       .  S
C3474      H3486   1.110       .  S
C3474      H3487   1.106       .  S
C3476      C3477   1.402       .  A
C3476      C3481   1.506       .  S
C3477      C3478   1.404       .  A
C3477      H3482   1.084       .  S
C3478      C3479   1.416       .  A
C3479      C3480   1.403       .  A
C3479      C3483   1.507       .  S
C3480      H3484   1.084       .  S
C3481      H3491   1.111       .  S
C3481      H3492   1.110       .  S
C3481      H3493   1.110       .  S
C3483      H3494   1.111       .  S
C3483      H3495   1.110       .  S
C3483      H3496   1.107       .  S
C3497      C3498   1.400       .  A
C3497      C3502   1.403       .  A
C3497      H3507   1.085       .  S
C3498      C3499   1.411       .  A
C3498      C3503   1.483       .  S
C3499      C3500   1.406       .  A
C3499      C3504   1.506       .  S
C3500      C3501   1.405       .  A
C3500      H3505   1.084       .  S
C3501      C3502   1.420       .  A
C3502      C3506   1.508       .  S
C3503      C3508   1.411       .  A
C3503      C3512   1.400       .  A
C3504      H3520   1.110       .  S
C3504      H3521   1.110       .  S
C3504      H3522   1.111       .  S
C3506      H3517   1.110       .  S
C3506      H3518   1.111       .  S
C3506      H3519   1.106       .  S
C3508      C3509   1.407       .  A
C3508      C3513   1.506       .  S
C3509      C3510   1.406       .  A
C3509      H3514   1.084       .  S
C3510      C3511   1.419       .  A
C3511      C3512   1.403       .  A
C3511      C3515   1.508       .  S
C3512      H3516   1.085       .  S
C3513      H3523   1.111       .  S
C3513      H3524   1.110       .  S
C3513      H3525   1.110       .  S
C3515      H3526   1.110       .  S
C3515      H3527   1.106       .  S
C3515      H3528   1.111       .  S
C3529      C3530   1.401       .  A
C3529      C3534   1.405       .  A
C3529      H3539   1.084       .  S
C3530      C3531   1.411       .  A
C3530      C3535   1.483       .  S
C3531      C3532   1.404       .  A
C3531      C3536   1.506       .  S
C3532      C3533   1.404       .  A
C3532      H3537   1.084       .  S
C3533      C3534   1.415       .  A
C3534      C3538   1.507       .  S
C3535      C3540   1.412       .  A
C3535      C3544   1.403       .  A
C3536      H3552   1.110       .  S
C3536      H3553   1.110       .  S
C3536      H3554   1.111       .  S
C3538      H3549   1.108       .  S
C3538      H3550   1.111       .  S
C3538      H3551   1.110       .  S
C3540      C3541   1.404       .  A
C3540      C3545   1.506       .  S
C3541      C3542   1.402       .  A
C3541      H3546   1.084       .  S
C3542      C3543   1.413       .  A
C3543      C3544   1.405       .  A
C3543      C3547   1.508   1_565  S
C3544      H3548   1.084       .  S
C3545      H3555   1.111       .  S
C3545      H3556   1.110       .  S
C3545      H3557   1.110       .  S
C3547      H3558   1.110       .  S
C3547      H3559   1.111       .  S
C3547      H3560   1.111       .  S
C3561      C3562   1.400       .  A
C3561      C3566   1.403       .  A
C3561      H3571   1.085       .  S
C3562      C3563   1.409       .  A
C3562      C3567   1.478       .  S
C3563      C3564   1.402       .  A
C3563      C3568   1.507       .  S
C3564      C3565   1.404       .  A
C3564      H3569   1.084       .  S
C3565      C3566   1.418       .  A
C3566      C3570   1.508       .  S
C3567      C3572   1.410       .  A
C3567      C3576   1.399       .  A
C3568      H3584   1.110       .  S
C3568      H3585   1.110       .  S
C3568      H3586   1.111       .  S
C3570      H3581   1.111       .  S
C3570      H3582   1.110       .  S
C3570      H3583   1.106       .  S
C3572      C3573   1.404       .  A
C3572      C3577   1.506       .  S
C3573      C3574   1.404       .  A
C3573      H3578   1.084       .  S
C3574      C3575   1.417       .  A
C3575      C3576   1.401       .  A
C3575      C3579   1.508       .  S
C3576      H3580   1.085       .  S
C3577      H3587   1.111       .  S
C3577      H3588   1.110       .  S
C3577      H3589   1.110       .  S
C3579      H3590   1.111       .  S
C3579      H3591   1.106       .  S
C3579      H3592   1.110       .  S
C3593      C3594   1.400       .  A
C3593      C3598   1.401       .  A
C3593      H3603   1.085       .  S
C3594      C3595   1.410       .  A
C3594      C3599   1.477       .  S
C3595      C3596   1.403       .  A
C3595      C3600   1.507       .  S
C3596      C3597   1.403       .  A
C3596      H3601   1.084       .  S
C3597      C3598   1.416       .  A
C3598      C3602   1.508       .  S
C3599      C3604   1.409       .  A
C3599      C3608   1.399       .  A
C3600      H3616   1.110       .  S
C3600      H3617   1.109       .  S
C3600      H3618   1.111       .  S
C3602      H3613   1.110       .  S
C3602      H3614   1.110       .  S
C3602      H3615   1.106       .  S
C3604      C3605   1.401       .  A
C3604      C3609   1.508       .  S
C3605      C3606   1.405       .  A
C3605      H3610   1.084       .  S
C3606      C3607   1.418       .  A
C3607      C3608   1.404       .  A
C3607      C3611   1.507       .  S
C3608      H3612   1.084       .  S
C3609      H3619   1.111       .  S
C3609      H3620   1.110       .  S
C3609      H3621   1.109       .  S
C3611      H3622   1.111       .  S
C3611      H3623   1.110       .  S
C3611      H3624   1.107       .  S
C3625      C3626   1.398       .  A
C3625      C3630   1.400       .  A
C3625      H3635   1.085       .  S
C3626      C3627   1.409       .  A
C3626      C3631   1.472       .  S
C3627      C3628   1.401       .  A
C3627      C3632   1.507       .  S
C3628      C3629   1.404       .  A
C3628      H3633   1.084       .  S
C3629      C3630   1.418       .  A
C3630      C3634   1.509       .  S
C3631      C3636   1.409       .  A
C3631      C3640   1.399       .  A
C3632      H3648   1.110       .  S
C3632      H3649   1.109       .  S
C3632      H3650   1.111       .  S
C3634      H3645   1.111       .  S
C3634      H3646   1.110       .  S
C3634      H3647   1.106       .  S
C3636      C3637   1.401       .  A
C3636      C3641   1.507       .  S
C3637      C3638   1.404       .  A
C3637      H3642   1.084       .  S
C3638      C3639   1.416       .  A
C3639      C3640   1.400       .  A
C3639      C3643   1.508       .  S
C3640      H3644   1.085       .  S
C3641      H3651   1.111       .  S
C3641      H3652   1.110       .  S
C3641      H3653   1.109       .  S
C3643      H3654   1.111       .  S
C3643      H3655   1.107       .  S
C3643      H3656   1.110       .  S
C3657      C3658   1.400       .  A
C3657      C3662   1.403       .  A
C3657      H3667   1.084       .  S
C3658      C3659   1.410       .  A
C3658      C3663   1.478       .  S
C3659      C3660   1.402       .  A
C3659      C3664   1.506       .  S
C3660      C3661   1.403       .  A
C3660      H3665   1.084       .  S
C3661      C3662   1.416       .  A
C3662      C3666   1.507       .  S
C3663      C3668   1.410       .  A
C3663      C3672   1.400       .  A
C3664      H3680   1.110       .  S
C3664      H3681   1.110       .  S
C3664      H3682   1.111       .  S
C3666      H3677   1.108       .  S
C3666      H3678   1.111       .  S
C3666      H3679   1.110       .  S
C3668      C3669   1.403       .  A
C3668      C3673   1.506       .  S
C3669      C3670   1.404       .  A
C3669      H3674   1.084       .  S
C3670      C3671   1.416       .  A
C3671      C3672   1.401       .  A
C3671      C3675   1.509       .  S
C3672      H3676   1.085       .  S
C3673      H3683   1.111       .  S
C3673      H3684   1.110       .  S
C3673      H3685   1.110       .  S
C3675      H3686   1.110       .  S
C3675      H3687   1.107       .  S
C3675      H3688   1.111       .  S
C3689      C3690   1.400       .  A
C3689      C3694   1.402       .  A
C3689      H3699   1.085       .  S
C3690      C3691   1.409       .  A
C3690      C3695   1.475       .  S
C3691      C3692   1.401       .  A
C3691      C3696   1.506       .  S
C3692      C3693   1.403       .  A
C3692      H3697   1.084       .  S
C3693      C3694   1.416       .  A
C3694      C3698   1.509       .  S
C3695      C3700   1.408       .  A
C3695      C3704   1.399       .  A
C3696      H3712   1.110       .  S
C3696      H3713   1.110       .  S
C3696      H3714   1.111       .  S
C3698      H3709   1.111       .  S
C3698      H3710   1.110       .  S
C3698      H3711   1.107       .  S
C3700      C3701   1.401       .  A
C3700      C3705   1.507       .  S
C3701      C3702   1.406       .  A
C3701      H3706   1.084       .  S
C3702      C3703   1.418       .  A
C3703      C3704   1.402       .  A
C3703      C3707   1.508       .  S
C3704      H3708   1.085       .  S
C3705      H3715   1.111       .  S
C3705      H3716   1.110       .  S
C3705      H3717   1.110       .  S
C3707      H3718   1.111       .  S
C3707      H3719   1.105       .  S
C3707      H3720   1.110       .  S
C3721      C3722   1.399       .  A
C3721      C3726   1.402       .  A
C3721      H3731   1.085       .  S
C3722      C3723   1.410       .  A
C3722      C3727   1.477       .  S
C3723      C3724   1.403       .  A
C3723      C3728   1.507       .  S
C3724      C3725   1.405       .  A
C3724      H3729   1.084       .  S
C3725      C3726   1.418       .  A
C3726      C3730   1.508       .  S
C3727      C3732   1.409       .  A
C3727      C3736   1.401       .  A
C3728      H3744   1.110       .  S
C3728      H3745   1.108       .  S
C3728      H3746   1.111       .  S
C3730      H3741   1.111       .  S
C3730      H3742   1.110       .  S
C3730      H3743   1.106       .  S
C3732      C3733   1.402       .  A
C3732      C3737   1.507       .  S
C3733      C3734   1.406       .  A
C3733      H3738   1.084       .  S
C3734      C3735   1.417       .  A
C3735      C3736   1.402       .  A
C3735      C3739   1.509       .  S
C3736      H3740   1.085       .  S
C3737      H3747   1.111       .  S
C3737      H3748   1.110       .  S
C3737      H3749   1.108       .  S
C3739      H3750   1.111       .  S
C3739      H3751   1.106       .  S
C3739      H3752   1.110       .  S
C3753      C3754   1.400       .  A
C3753      C3758   1.402       .  A
C3753      H3763   1.085       .  S
C3754      C3755   1.408       .  A
C3754      C3759   1.476       .  S
C3755      C3756   1.402       .  A
C3755      C3760   1.506       .  S
C3756      C3757   1.405       .  A
C3756      H3761   1.084       .  S
C3757      C3758   1.417       .  A
C3758      C3762   1.508       .  S
C3759      C3764   1.409       .  A
C3759      C3768   1.400       .  A
C3760      H3776   1.110       .  S
C3760      H3777   1.110       .  S
C3760      H3778   1.111       .  S
C3762      H3773   1.111       .  S
C3762      H3774   1.110       .  S
C3762      H3775   1.106       .  S
C3764      C3765   1.401       .  A
C3764      C3769   1.507       .  S
C3765      C3766   1.405       .  A
C3765      H3770   1.084       .  S
C3766      C3767   1.417       .  A
C3767      C3768   1.402       .  A
C3767      C3771   1.508       .  S
C3768      H3772   1.085       .  S
C3769      H3779   1.111       .  S
C3769      H3780   1.110       .  S
C3769      H3781   1.110       .  S
C3771      H3782   1.111       .  S
C3771      H3783   1.106       .  S
C3771      H3784   1.110       .  S
C3785      C3786   1.400       .  A
C3785      C3790   1.403       .  A
C3785      H3795   1.085       .  S
C3786      C3787   1.411       .  A
C3786      C3791   1.481       .  S
C3787      C3788   1.403       .  A
C3787      C3792   1.507       .  S
C3788      C3789   1.404       .  A
C3788      H3793   1.084       .  S
C3789      C3790   1.417       .  A
C3790      C3794   1.508       .  S
C3791      C3796   1.410       .  A
C3791      C3800   1.399       .  A
C3792      H3808   1.110       .  S
C3792      H3809   1.110       .  S
C3792      H3810   1.111       .  S
C3794      H3805   1.110       .  S
C3794      H3806   1.111       .  S
C3794      H3807   1.107       .  S
C3796      C3797   1.404       .  A
C3796      C3801   1.507       .  S
C3797      C3798   1.405       .  A
C3797      H3802   1.084       .  S
C3798      C3799   1.418       .  A
C3799      C3800   1.402       .  A
C3799      C3803   1.508       .  S
C3800      H3804   1.085       .  S
C3801      H3811   1.111       .  S
C3801      H3812   1.110       .  S
C3801      H3813   1.110       .  S
C3803      H3814   1.110       .  S
C3803      H3815   1.105       .  S
C3803      H3816   1.111       .  S
C3817      C3818   1.401       .  A
C3817      C3822   1.404       .  A
C3817      H3827   1.084       .  S
C3818      C3819   1.409       .  A
C3818      C3823   1.475       .  S
C3819      C3820   1.400       .  A
C3819      C3824   1.507       .  S
C3820      C3821   1.404       .  A
C3820      H3825   1.084       .  S
C3821      C3822   1.415       .  A
C3822      C3826   1.507       .  S
C3823      C3828   1.409       .  A
C3823      C3832   1.399       .  A
C3824      H3840   1.110       .  S
C3824      H3841   1.109       .  S
C3824      H3842   1.111       .  S
C3826      H3837   1.107       .  S
C3826      H3838   1.111       .  S
C3826      H3839   1.110       .  S
C3828      C3829   1.403       .  A
C3828      C3833   1.507       .  S
C3829      C3830   1.405       .  A
C3829      H3834   1.084       .  S
C3830      C3831   1.418       .  A
C3831      C3832   1.401       .  A
C3831      C3835   1.509       .  S
C3832      H3836   1.085       .  S
C3833      H3843   1.111       .  S
C3833      H3844   1.110       .  S
C3833      H3845   1.109       .  S
C3835      H3846   1.110       .  S
C3835      H3847   1.106       .  S
C3835      H3848   1.111       .  S
C3849      C3850   1.401       .  A
C3849      C3854   1.404       .  A
C3849      H3859   1.084       .  S
C3850      C3851   1.408       .  A
C3850      C3855   1.474       .  S
C3851      C3852   1.398       .  A
C3851      C3856   1.508       .  S
C3852      C3853   1.404       .  A
C3852      H3857   1.084       .  S
C3853      C3854   1.416       .  A
C3854      C3858   1.507       .  S
C3855      C3860   1.408       .  A
C3855      C3864   1.399       .  A
C3856      H3872   1.110       .  S
C3856      H3873   1.110       .  S
C3856      H3874   1.111       .  S
C3858      H3869   1.110       .  S
C3858      H3870   1.111       .  S
C3858      H3871   1.107       .  S
C3860      C3861   1.401       .  A
C3860      C3865   1.506       .  S
C3861      C3862   1.404       .  A
C3861      H3866   1.084       .  S
C3862      C3863   1.416       .  A
C3863      C3864   1.401       .  A
C3863      C3867   1.508       .  S
C3864      H3868   1.085       .  S
C3865      H3875   1.111       .  S
C3865      H3876   1.110       .  S
C3865      H3877   1.110       .  S
C3867      H3878   1.110       .  S
C3867      H3879   1.106       .  S
C3867      H3880   1.111       .  S
C3881      C3882   1.401       .  A
C3881      C3886   1.403       .  A
C3881      H3891   1.084       .  S
C3882      C3883   1.410       .  A
C3882      C3887   1.481       .  S
C3883      C3884   1.401       .  A
C3883      C3888   1.508       .  S
C3884      C3885   1.407       .  A
C3884      H3889   1.083       .  S
C3885      C3886   1.419       .  A
C3886      C3890   1.507       .  S
C3887      C3892   1.409       .  A
C3887      C3896   1.400       .  A
C3888      H3904   1.109       .  S
C3888      H3905   1.110       .  S
C3888      H3906   1.111       .  S
C3890      H3901   1.111       .  S
C3890      H3902   1.107       .  S
C3890      H3903   1.110       .  S
C3892      C3893   1.399       .  A
C3892      C3897   1.509       .  S
C3893      C3894   1.409       .  A
C3893      H3898   1.082       .  S
C3894      C3895   1.421       .  A
C3895      C3896   1.405       .  A
C3895      C3899   1.506       .  S
C3896      H3900   1.084       .  S
C3897      H3907   1.111       .  S
C3897      H3908   1.108       .  S
C3897      H3909   1.110       .  S
C3899      H3910   1.107       .  S
C3899      H3911   1.110       .  S
C3899      H3912   1.111       .  S
C3913      C3914   1.401       .  A
C3913      C3918   1.404       .  A
C3913      H3923   1.084       .  S
C3914      C3915   1.409       .  A
C3914      C3919   1.475       .  S
C3915      C3916   1.399       .  A
C3915      C3920   1.507       .  S
C3916      C3917   1.403       .  A
C3916      H3921   1.084       .  S
C3917      C3918   1.415       .  A
C3918      C3922   1.507       .  S
C3919      C3924   1.410       .  A
C3919      C3928   1.399       .  A
C3920      H3936   1.110       .  S
C3920      H3937   1.110       .  S
C3920      H3938   1.111       .  S
C3922      H3933   1.108       .  S
C3922      H3934   1.111       .  S
C3922      H3935   1.110       .  S
C3924      C3925   1.402       .  A
C3924      C3929   1.506       .  S
C3925      C3926   1.403       .  A
C3925      H3930   1.084       .  S
C3926      C3927   1.417       .  A
C3927      C3928   1.400       .  A
C3927      C3931   1.509       .  S
C3928      H3932   1.085       .  S
C3929      H3939   1.111       .  S
C3929      H3940   1.110       .  S
C3929      H3941   1.110       .  S
C3931      H3942   1.110       .  S
C3931      H3943   1.107       .  S
C3931      H3944   1.111       .  S
C3945      C3946   1.399       .  A
C3945      C3950   1.401       .  A
C3945      H3955   1.085       .  S
C3946      C3947   1.408       .  A
C3946      C3951   1.474       .  S
C3947      C3948   1.400       .  A
C3947      C3952   1.507       .  S
C3948      C3949   1.405       .  A
C3948      H3953   1.084       .  S
C3949      C3950   1.419       .  A
C3950      C3954   1.508       .  S
C3951      C3956   1.408       .  A
C3951      C3960   1.399       .  A
C3952      H3968   1.110       .  S
C3952      H3969   1.110       .  S
C3952      H3970   1.111       .  S
C3954      H3965   1.110       .  S
C3954      H3966   1.111       .  S
C3954      H3967   1.104       .  S
C3956      C3957   1.402       .  A
C3956      C3961   1.506       .  S
C3957      C3958   1.405       .  A
C3957      H3962   1.084       .  S
C3958      C3959   1.417       .  A
C3959      C3960   1.399       .  A
C3959      C3963   1.508       .  S
C3960      H3964   1.085       .  S
C3961      H3971   1.111       .  S
C3961      H3972   1.110       .  S
C3961      H3973   1.110       .  S
C3963      H3974   1.110       .  S
C3963      H3975   1.106       .  S
C3963      H3976   1.111       .  S
C3977      C3978   1.399       .  A
C3977      C3982   1.403       .  A
C3977      H3987   1.084       .  S
C3978      C3979   1.408       .  A
C3978      C3983   1.476       .  S
C3979      C3980   1.402       .  A
C3979      C3984   1.506       .  S
C3980      C3981   1.405       .  A
C3980      H3985   1.084       .  S
C3981      C3982   1.417       .  A
C3982      C3986   1.507       .  S
C3983      C3988   1.409       .  A
C3983      C3992   1.400       .  A
C3984      H4000   1.110       .  S
C3984      H4001   1.110       .  S
C3984      H4002   1.111       .  S
C3986      H3997   1.107       .  S
C3986      H3998   1.111       .  S
C3986      H3999   1.110       .  S
C3988      C3989   1.402       .  A
C3988      C3993   1.506       .  S
C3989      C3990   1.405       .  A
C3989      H3994   1.084       .  S
C3990      C3991   1.417       .  A
C3991      C3992   1.401       .  A
C3991      C3995   1.508       .  S
C3992      H3996   1.085       .  S
C3993      H4003   1.111       .  S
C3993      H4004   1.110       .  S
C3993      H4005   1.110       .  S
C3995      H4006   1.110       .  S
C3995      H4007   1.106       .  S
C3995      H4008   1.111       .  S
C4009      C4010   1.400       .  A
C4009      C4014   1.403       .  A
C4009      H4019   1.085       .  S
C4010      C4011   1.411       .  A
C4010      C4015   1.482       .  S
C4011      C4012   1.405       .  A
C4011      C4016   1.506       .  S
C4012      C4013   1.405       .  A
C4012      H4017   1.084       .  S
C4013      C4014   1.419       .  A
C4014      C4018   1.508       .  S
C4015      C4020   1.411       .  A
C4015      C4024   1.402       .  A
C4016      H4032   1.110       .  S
C4016      H4033   1.110       .  S
C4016      H4034   1.111       .  S
C4018      H4029   1.110       .  S
C4018      H4030   1.111       .  S
C4018      H4031   1.106       .  S
C4020      C4021   1.403       .  A
C4020      C4025   1.506       .  S
C4021      C4022   1.404       .  A
C4021      H4026   1.084       .  S
C4022      C4023   1.416       .  A
C4023      C4024   1.404       .  A
C4023      C4027   1.508       .  S
C4024      H4028   1.084       .  S
C4025      H4035   1.111       .  S
C4025      H4036   1.110       .  S
C4025      H4037   1.110       .  S
C4027      H4038   1.110       .  S
C4027      H4039   1.107       .  S
C4027      H4040   1.111       .  S
C4041      C4042   1.400       .  A
C4041      C4046   1.404       .  A
C4041      H4051   1.085       .  S
C4042      C4043   1.410       .  A
C4042      C4047   1.483       .  S
C4043      C4044   1.404       .  A
C4043      C4048   1.506       .  S
C4044      C4045   1.406       .  A
C4044      H4049   1.084       .  S
C4045      C4046   1.419       .  A
C4046      C4050   1.508       .  S
C4047      C4052   1.409       .  A
C4047      C4056   1.401       .  A
C4048      H4064   1.110       .  S
C4048      H4065   1.110       .  S
C4048      H4066   1.111       .  S
C4050      H4061   1.111       .  S
C4050      H4062   1.110       .  S
C4050      H4063   1.106       .  S
C4052      C4053   1.404       .  A
C4052      C4057   1.507       .  S
C4053      C4054   1.408       .  A
C4053      H4058   1.084       .  S
C4054      C4055   1.419       .  A
C4055      C4056   1.406       .  A
C4055      C4059   1.506       .  S
C4056      H4060   1.084       .  S
C4057      H4067   1.111       .  S
C4057      H4068   1.110       .  S
C4057      H4069   1.110       .  S
C4059      H4070   1.111       .  S
C4059      H4071   1.108       .  S
C4059      H4072   1.109       .  S
C4073      C4074   1.400       .  A
C4073      C4078   1.402       .  A
C4073      H4083   1.085       .  S
C4074      C4075   1.409       .  A
C4074      C4079   1.478       .  S
C4075      C4076   1.403       .  A
C4075      C4080   1.506       .  S
C4076      C4077   1.405       .  A
C4076      H4081   1.084       .  S
C4077      C4078   1.418       .  A
C4078      C4082   1.508       .  S
C4079      C4084   1.410       .  A
C4079      C4088   1.400       .  A
C4080      H4096   1.110       .  S
C4080      H4097   1.110       .  S
C4080      H4098   1.111       .  S
C4082      H4093   1.110       .  S
C4082      H4094   1.111       .  S
C4082      H4095   1.105       .  S
C4084      C4085   1.404       .  A
C4084      C4089   1.506       .  S
C4085      C4086   1.404       .  A
C4085      H4090   1.084       .  S
C4086      C4087   1.416       .  A
C4087      C4088   1.400       .  A
C4087      C4091   1.509       .  S
C4088      H4092   1.085       .  S
C4089      H4099   1.111       .  S
C4089      H4100   1.110       .  S
C4089      H4101   1.110       .  S
C4091      H4102   1.110       .  S
C4091      H4103   1.107       .  S
C4091      H4104   1.111       .  S
C4105      C4106   1.400       .  A
C4105      C4110   1.404       .  A
C4105      H4115   1.085       .  S
C4106      C4107   1.409       .  A
C4106      C4111   1.479       .  S
C4107      C4108   1.402       .  A
C4107      C4112   1.507       .  S
C4108      C4109   1.405       .  A
C4108      H4113   1.084       .  S
C4109      C4110   1.419       .  A
C4110      C4114   1.508       .  S
C4111      C4116   1.410       .  A
C4111      C4120   1.400       .  A
C4112      H4128   1.110       .  S
C4112      H4129   1.110       .  S
C4112      H4130   1.111       .  S
C4114      H4125   1.110       .  S
C4114      H4126   1.111       .  S
C4114      H4127   1.106       .  S
C4116      C4117   1.403   1_655  A
C4116      C4121   1.506       .  S
C4117      C4118   1.404       .  A
C4117      H4122   1.084       .  S
C4118      C4119   1.418   1_455  A
C4119      C4120   1.403       .  A
C4119      C4123   1.509       .  S
C4120      H4124   1.085       .  S
C4121      H4131   1.111   1_655  S
C4121      H4132   1.110       .  S
C4121      H4133   1.110       .  S
C4123      H4134   1.110       .  S
C4123      H4135   1.106       .  S
C4123      H4136   1.111       .  S
C4137      C4138   1.399       .  A
C4137      C4142   1.402       .  A
C4137      H4147   1.085       .  S
C4138      C4139   1.409       .  A
C4138      C4143   1.477       .  S
C4139      C4140   1.402       .  A
C4139      C4144   1.507       .  S
C4140      C4141   1.405       .  A
C4140      H4145   1.084       .  S
C4141      C4142   1.419       .  A
C4142      C4146   1.508       .  S
C4143      C4148   1.409       .  A
C4143      C4152   1.400       .  A
C4144      H4160   1.110       .  S
C4144      H4161   1.110       .  S
C4144      H4162   1.111       .  S
C4146      H4157   1.111       .  S
C4146      H4158   1.110       .  S
C4146      H4159   1.106       .  S
C4148      C4149   1.402       .  A
C4148      C4153   1.507       .  S
C4149      C4150   1.405       .  A
C4149      H4154   1.084       .  S
C4150      C4151   1.417       .  A
C4151      C4152   1.403       .  A
C4151      C4155   1.507       .  S
C4152      H4156   1.085       .  S
C4153      H4163   1.111       .  S
C4153      H4164   1.110       .  S
C4153      H4165   1.110       .  S
C4155      H4166   1.111       .  S
C4155      H4167   1.107       .  S
C4155      H4168   1.110       .  S
C4169      C4170   1.399       .  A
C4169      C4174   1.403       .  A
C4169      H4179   1.084       .  S
C4170      C4171   1.408       .  A
C4170      C4175   1.475       .  S
C4171      C4172   1.400       .  A
C4171      C4176   1.506       .  S
C4172      C4173   1.405       .  A
C4172      H4177   1.084       .  S
C4173      C4174   1.417       .  A
C4174      C4178   1.507       .  S
C4175      C4180   1.410       .  A
C4175      C4184   1.400       .  A
C4176      H4192   1.110       .  S
C4176      H4193   1.110       .  S
C4176      H4194   1.111       .  S
C4178      H4189   1.107       .  S
C4178      H4190   1.111       .  S
C4178      H4191   1.110       .  S
C4180      C4181   1.401       .  A
C4180      C4185   1.506       .  S
C4181      C4182   1.402       .  A
C4181      H4186   1.084       .  S
C4182      C4183   1.414       .  A
C4183      C4184   1.402       .  A
C4183      C4187   1.507       .  S
C4184      H4188   1.084       .  S
C4185      H4195   1.111       .  S
C4185      H4196   1.110       .  S
C4185      H4197   1.110       .  S
C4187      H4198   1.108       .  S
C4187      H4199   1.110       .  S
C4187      H4200   1.111       .  S
C4201      C4202   1.400       .  A
C4201      C4206   1.404       .  A
C4201      H4211   1.085       .  S
C4202      C4203   1.409       .  A
C4202      C4207   1.477       .  S
C4203      C4204   1.401       .  A
C4203      C4208   1.507       .  S
C4204      C4205   1.405       .  A
C4204      H4209   1.084       .  S
C4205      C4206   1.418       .  A
C4206      C4210   1.508       .  S
C4207      C4212   1.409       .  A
C4207      C4216   1.400   1_655  A
C4208      H4224   1.110   1_655  S
C4208      H4225   1.110       .  S
C4208      H4226   1.111       .  S
C4210      H4221   1.110       .  S
C4210      H4222   1.111       .  S
C4210      H4223   1.106       .  S
C4212      C4213   1.402       .  A
C4212      C4217   1.506       .  S
C4213      C4214   1.405   1_655  A
C4213      H4218   1.084       .  S
C4214      C4215   1.417       .  A
C4215      C4216   1.401       .  A
C4215      C4219   1.509       .  S
C4216      H4220   1.085       .  S
C4217      H4227   1.111       .  S
C4217      H4228   1.110       .  S
C4217      H4229   1.110       .  S
C4219      H4230   1.110       .  S
C4219      H4231   1.106       .  S
C4219      H4232   1.111       .  S
C4233      C4234   1.399       .  A
C4233      C4238   1.400       .  A
C4233      H4243   1.085       .  S
C4234      C4235   1.409       .  A
C4234      C4239   1.475       .  S
C4235      C4236   1.403       .  A
C4235      C4240   1.506       .  S
C4236      C4237   1.404       .  A
C4236      H4241   1.084       .  S
C4237      C4238   1.417       .  A
C4238      C4242   1.508       .  S
C4239      C4244   1.409       .  A
C4239      C4248   1.399       .  A
C4240      H4256   1.110       .  S
C4240      H4257   1.109       .  S
C4240      H4258   1.111       .  S
C4242      H4253   1.110       .  S
C4242      H4254   1.111       .  S
C4242      H4255   1.106       .  S
C4244      C4245   1.403       .  A
C4244      C4249   1.507       .  S
C4245      C4246   1.405       .  A
C4245      H4250   1.084       .  S
C4246      C4247   1.416       .  A
C4247      C4248   1.400       .  A
C4247      C4251   1.508       .  S
C4248      H4252   1.085       .  S
C4249      H4259   1.111       .  S
C4249      H4260   1.110       .  S
C4249      H4261   1.109       .  S
C4251      H4262   1.110       .  S
C4251      H4263   1.106       .  S
C4251      H4264   1.111       .  S
C4265      C4266   1.401       .  A
C4265      C4270   1.404       .  A
C4265      H4275   1.084       .  S
C4266      C4267   1.410       .  A
C4266      C4271   1.480       .  S
C4267      C4268   1.403       .  A
C4267      C4272   1.506       .  S
C4268      C4269   1.403       .  A
C4268      H4273   1.084       .  S
C4269      C4270   1.414       .  A
C4270      C4274   1.507       .  S
C4271      C4276   1.409       .  A
C4271      C4280   1.401       .  A
C4272      H4288   1.110       .  S
C4272      H4289   1.110       .  S
C4272      H4290   1.111       .  S
C4274      H4285   1.108       .  S
C4274      H4286   1.111       .  S
C4274      H4287   1.110       .  S
C4276      C4277   1.404       .  A
C4276      C4281   1.506       .  S
C4277      C4278   1.406       .  A
C4277      H4282   1.084       .  S
C4278      C4279   1.417       .  A
C4279      C4280   1.404       .  A
C4279      C4283   1.507       .  S
C4280      H4284   1.085       .  S
C4281      H4291   1.111       .  S
C4281      H4292   1.110       .  S
C4281      H4293   1.110       .  S
C4283      H4294   1.110       .  S
C4283      H4295   1.106       .  S
C4283      H4296   1.111       .  S
C4297      C4298   1.401       .  A
C4297      C4302   1.402       .  A
C4297      H4307   1.085       .  S
C4298      C4299   1.409       .  A
C4298      C4303   1.477       .  S
C4299      C4300   1.402       .  A
C4299      C4304   1.506       .  S
C4300      C4301   1.403       .  A
C4300      H4305   1.084       .  S
C4301      C4302   1.415       .  A
C4302      C4306   1.508       .  S
C4303      C4308   1.408       .  A
C4303      C4312   1.400       .  A
C4304      H4320   1.110       .  S
C4304      H4321   1.110       .  S
C4304      H4322   1.111       .  S
C4306      H4317   1.111       .  S
C4306      H4318   1.110       .  S
C4306      H4319   1.107       .  S
C4308      C4309   1.401       .  A
C4308      C4313   1.507       .  S
C4309      C4310   1.406       .  A
C4309      H4314   1.084       .  S
C4310      C4311   1.417       .  A
C4311      C4312   1.403       .  A
C4311      C4315   1.507       .  S
C4312      H4316   1.085       .  S
C4313      H4323   1.111       .  S
C4313      H4324   1.110       .  S
C4313      H4325   1.110       .  S
C4315      H4326   1.111       .  S
C4315      H4327   1.106       .  S
C4315      H4328   1.110       .  S
C4329      C4330   1.401       .  A
C4329      C4334   1.404       .  A
C4329      H4339   1.084       .  S
C4330      C4331   1.410       .  A
C4330      C4335   1.480       .  S
C4331      C4332   1.403       .  A
C4331      C4336   1.507       .  S
C4332      C4333   1.404       .  A
C4332      H4337   1.084       .  S
C4333      C4334   1.415       .  A
C4334      C4338   1.507       .  S
C4335      C4340   1.410       .  A
C4335      C4344   1.401       .  A
C4336      H4352   1.110       .  S
C4336      H4353   1.110       .  S
C4336      H4354   1.111       .  S
C4338      H4349   1.108       .  S
C4338      H4350   1.111       .  S
C4338      H4351   1.110       .  S
C4340      C4341   1.402       .  A
C4340      C4345   1.506       .  S
C4341      C4342   1.404       .  A
C4341      H4346   1.084       .  S
C4342      C4343   1.415       .  A
C4343      C4344   1.404       .  A
C4343      C4347   1.507       .  S
C4344      H4348   1.084       .  S
C4345      H4355   1.111       .  S
C4345      H4356   1.110       .  S
C4345      H4357   1.110       .  S
C4347      H4358   1.108       .  S
C4347      H4359   1.110       .  S
C4347      H4360   1.111       .  S
C4361      C4362   1.401       .  A
C4361      C4366   1.403       .  A
C4361      H4371   1.085       .  S
C4362      C4363   1.409       .  A
C4362      C4367   1.478       .  S
C4363      C4364   1.402       .  A
C4363      C4368   1.506       .  S
C4364      C4365   1.404       .  A
C4364      H4369   1.084       .  S
C4365      C4366   1.416       .  A
C4366      C4370   1.507       .  S
C4367      C4372   1.409       .  A
C4367      C4376   1.400       .  A
C4368      H4384   1.110       .  S
C4368      H4385   1.110       .  S
C4368      H4386   1.111       .  S
C4370      H4381   1.111       .  S
C4370      H4382   1.110       .  S
C4370      H4383   1.107       .  S
C4372      C4373   1.403       .  A
C4372      C4377   1.506       .  S
C4373      C4374   1.405       .  A
C4373      H4378   1.084       .  S
C4374      C4375   1.418       .  A
C4375      C4376   1.402       .  A
C4375      C4379   1.508       .  S
C4376      H4380   1.085       .  S
C4377      H4387   1.111       .  S
C4377      H4388   1.110       .  S
C4377      H4389   1.110       .  S
C4379      H4390   1.111       .  S
C4379      H4391   1.105       .  S
C4379      H4392   1.110       .  S
