geometry optimzed in LAMMPS
_audit_creation_date              2020-11-30 
_audit_creation_method            'lammps2cif' 
_symmetry_space_group_name_H-M    'P1' 
_symmetry_Int_Tables_number       1 
_symmetry_cell_setting            triclinic 
loop_ 
_symmetry_equiv_pos_as_xyz 
  x,y,z 
_cell_length_a                    23.72382345 
_cell_length_b                    30.007342706882632 
_cell_length_c                    38.271876218309245 
_cell_angle_alpha                 91.51152300819398 
_cell_angle_beta                  89.33106640553139 
_cell_angle_gamma                 92.76243974948471 
loop_ 
_atom_site_label 
_atom_site_type_symbol 
_atom_site_fract_x 
_atom_site_fract_y 
_atom_site_fract_z 
_atom_site_charge 
C1          C  0.31392237  0.55439878  0.37510353     0.82400
N2          N  0.32157193  0.59628848  0.38923622    -0.75900
C3          C  0.28821474  0.60971661  0.41626588     0.84900
N4          N  0.24653054  0.58162829  0.42859814    -0.75800
C5          C  0.23804252  0.54007399  0.41414344     0.85000
N6          N  0.27220086  0.52647000  0.38778261    -0.77500
C7          C  0.61264567  0.31936551  0.08352138     0.82400
N8          N  0.66055503  0.33962457  0.06991302    -0.75900
C9          C  0.69061232  0.31798025  0.04460316     0.84900
N10         N  0.67312626  0.27642283  0.03366452    -0.75800
C11         C  0.62664844  0.25591484  0.04776970     0.85000
N12         N  0.59585014  0.27757415  0.07223619    -0.77500
Zn13       Zn  0.44735801  0.42556409  0.18389091     1.49700
Zn14       Zn  0.47024581  0.49611933  0.24799827     1.49400
Zn15       Zn  0.41575266  0.39927241  0.26199397     1.49100
Zn16       Zn  0.54546895  0.41115398  0.23909780     1.49500
O17         O  0.46971450  0.43313732  0.23302838    -1.81900
O18         O  0.43637462  0.48599603  0.16320847    -0.72600
O19         O  0.41531291  0.50677763  0.28789499    -0.72400
O20         O  0.35314179  0.36982601  0.23388071    -0.71900
O21         O  0.45065374  0.53407950  0.20798864    -0.72600
O22         O  0.37346083  0.38834657  0.17918512    -0.72200
O23         O  0.37997797  0.43840647  0.29830013    -0.72800
O24         O  0.54244971  0.35579705  0.26806559    -0.72100
O25         O  0.54735507  0.51805257  0.26414127    -0.72900
O26         O  0.45257464  0.34998986  0.28546550    -0.72300
O27         O  0.59792117  0.45755126  0.26224611    -0.72800
O28         O  0.58037382  0.39470125  0.19251589    -0.72700
O29         O  0.50903473  0.39607049  0.15533727    -0.72500
C30         C  0.43912899  0.52560989  0.17607686     0.79300
C31         C  0.38302383  0.48011793  0.30520754     0.79800
C32         C  0.34156552  0.36847566  0.20156037     0.78800
C33         C  0.50227144  0.33610693  0.28476790     0.79200
C34         C  0.59313652  0.49893859  0.26919803     0.80300
C35         C  0.56011052  0.38807386  0.16208858     0.79300
C36         C  0.31906163  0.69801398  0.48323214     0.82400
N37         N  0.31239332  0.65730710  0.46698030    -0.75900
C38         C  0.29754232  0.65385779  0.43286744     0.84900
N39         N  0.28882736  0.69126715  0.41491751    -0.75800
C40         C  0.29379200  0.73194202  0.43134742     0.85000
N41         N  0.30900554  0.73527281  0.46541527    -0.77500
C42         C  0.43214814  0.71263329  0.11350892     0.82400
N43         N  0.41429660  0.70995004  0.07992379    -0.75900
C44         C  0.40047974  0.66950044  0.06462786     0.84900
N45         N  0.40439727  0.63187767  0.08322592    -0.75800
C46         C  0.42192269  0.63456838  0.11684075     0.85000
N47         N  0.43568800  0.67493896  0.13199651    -0.77500
C48         C  0.30798751  0.82125718  0.36734799     0.82400
N49         N  0.31897953  0.78522748  0.38629043    -0.75900
C50         C  0.28307810  0.77204883  0.41225231     0.84900
N51         N  0.23657713  0.79546086  0.41970174    -0.75800
C52         C  0.22531524  0.83149969  0.40053966     0.85000
N53         N  0.26087468  0.84395072  0.37427562    -0.77500
C54         C  0.64787888  0.03517098  0.08689176     0.82400
N55         N  0.62474403  0.07319590  0.07647809    -0.75900
C56         C  0.64796618  0.09602431  0.04940303     0.84900
N57         N  0.69420440  0.08100318  0.03268048    -0.75800
C58         C  0.71734363  0.04316783  0.04285685     0.85000
N59         N  0.69392119  0.02008296  0.06985134    -0.77500
Zn60       Zn  0.45209151  0.99456376  0.21304833     1.49700
Zn61       Zn  0.48041834  0.92979110  0.27380312     1.49400
Zn62       Zn  0.39578368  0.89771725  0.21187218     1.49100
Zn63       Zn  0.52789092  0.90868603  0.19687975     1.49500
O64         O  0.46466776  0.93264741  0.22389625    -1.81900
O65         O  0.46326813  0.03629204  0.25501619    -0.72600
O66         O  0.41805835  0.89392355  0.29751910    -0.72400
O67         O  0.34176752  0.93222608  0.18432892    -0.71900
O68         O  0.48599923  0.99126984  0.29732735    -0.72600
O69         O  0.37541550  0.00202452  0.19197751    -0.72200
O70         O  0.35544012  0.87836825  0.25541325    -0.72800
O71         O  0.50266520  0.85410383  0.16757615    -0.72100
O72         O  0.55393937  0.90119941  0.28201297    -0.72900
O73         O  0.41242203  0.84317980  0.18294804    -0.72300
O74         O  0.58860450  0.88761093  0.22876131    -0.72800
O75         O  0.56094708  0.95637928  0.16515199    -0.72700
O76         O  0.50781798  0.01436360  0.17678518    -0.72500
C77         C  0.47769200  0.03005400  0.28636290     0.79300
C78         C  0.37043670  0.87748687  0.28714386     0.79800
C79         C  0.33798134  0.97382953  0.18021518     0.78800
C80         C  0.45602754  0.83132841  0.16624466     0.79200
C81         C  0.59217167  0.88629183  0.26192860     0.80300
C82         C  0.54782701  0.99645984  0.16011716     0.79300
C83         C  0.51556894  0.22324508  0.33909855     0.82400
N84         N  0.50506184  0.18237216  0.32400467    -0.75900
C85         C  0.50450642  0.14537616  0.34366788     0.84900
N86         N  0.51470777  0.14941829  0.37857623    -0.75800
C87         C  0.52494314  0.19066297  0.39371730     0.85000
N88         N  0.52527844  0.22729524  0.37379211    -0.77500
C89         C  0.56971826  0.16901975  0.48737372     0.82400
N90         N  0.58100005  0.21033282  0.50201737    -0.75900
C91         C  0.60942808  0.21133608  0.03508773     0.84900
N92         N  0.62852812  0.17512478  0.05094593    -0.75800
C93         C  0.62063477  0.13403877  0.03561819     0.85000
N94         N  0.58725906  0.13266844  0.50346379    -0.77500
C95         C  0.13942783  0.31582550  0.10799928     0.82400
N96         N  0.18681781  0.33797289  0.11975330    -0.75900
C97         C  0.21361693  0.32405309  0.14823826     0.84900
N98         N  0.19332904  0.28680664  0.16468426    -0.75800
C99         C  0.14629035  0.26382281  0.15267234     0.85000
N100        N  0.11944987  0.27834170  0.12416597    -0.77500
C101        C  0.81801842  0.54680218  0.34210046     0.82400
N102        N  0.77101580  0.52189031  0.33255219    -0.75900
C103        C  0.73662521  0.53605985  0.30753290     0.84900
N104        N  0.75002140  0.57490746  0.29136746    -0.75800
C105        C  0.79698016  0.59987350  0.30041797     0.85000
N106        N  0.83100337  0.58592249  0.32590564    -0.77500
Zn107      Zn  0.96960020  0.49443422  0.46784126     1.49700
Zn108      Zn  0.94186558  0.43347885  0.03125474     1.49400
Zn109      Zn  0.91029678  0.39750295  0.45754470     1.49100
Zn110      Zn  0.04314339  0.40889675  0.47182487     1.49500
O111        O  0.96927187  0.43270335  0.48268429    -1.81900
O112        O  0.94673402  0.53511996  0.50707184    -0.72600
O113        O  0.86228297  0.41119440  0.04180632    -0.72400
O114        O  0.87456046  0.43489864  0.42139547    -0.71900
O115        O  0.94791067  0.49690709  0.04881689    -0.72600
O116        O  0.91761699  0.50206514  0.42737331    -0.72200
O117        O  0.84816454  0.37553275  0.49062152    -0.72800
O118        O  0.03599973  0.35691773  0.43712613    -0.72100
O119        O  0.99152248  0.39590836  0.05948634    -0.72900
O120        O  0.94303419  0.34480762  0.43179956    -0.72300
O121        O  0.05396417  0.37034819  0.02102390    -0.72800
O122        O  0.09868988  0.45652371  0.45371758    -0.72700
O123        O  0.04731110  0.51653659  0.45392388    -0.72500
C124        C  0.95508311  0.53384577  0.03350865     0.79300
C125        C  0.82662599  0.38755695  0.02403590     0.79800
C126        C  0.88189173  0.47528357  0.41224050     0.78800
C127        C  0.99344304  0.33429342  0.42506866     0.79200
C128        C  0.03382152  0.37283195  0.05203073     0.80300
C129        C  0.09395415  0.49809262  0.44914896     0.79300
C130        C  0.01941872  0.22437611  0.36295767     0.82400
N131        N  0.01091047  0.18271672  0.37555239    -0.75900
C132        C  0.02027009  0.14636110  0.35478966     0.84900
N133        N  0.03839644  0.15188424  0.32119776    -0.75800
C134        C  0.04695442  0.19380486  0.30844523     0.85000
N135        N  0.03737188  0.22979568  0.32952331    -0.77500
C136        C  0.10033837  0.17456668  0.21375785     0.82400
N137        N  0.11311774  0.13795191  0.19437708    -0.75900
C138        C  0.13355408  0.14171102  0.16136760     0.84900
N139        N  0.14251609  0.18270093  0.14768075    -0.75800
C140        C  0.13039377  0.21988767  0.16685036     0.85000
N141        N  0.10999590  0.21588592  0.20016673    -0.77500
C142        C  0.15071610  0.04081110  0.10521465     0.82400
N143        N  0.13017222  0.07971694  0.11800844    -0.75900
C144        C  0.15724703  0.10265170  0.14441849     0.84900
N145        N  0.20441509  0.08676470  0.15805636    -0.75800
C146        C  0.22511914  0.04817643  0.14567261     0.85000
N147        N  0.19799854  0.02497679  0.11933058    -0.77500
C148        C  0.78833009  0.82024590  0.32433678     0.82400
N149        N  0.74402721  0.83776414  0.30840517    -0.75900
C150        C  0.72087207  0.81736804  0.27949845     0.84900
N151        N  0.74182876  0.77863610  0.26693587    -0.75800
C152        C  0.78506027  0.76010741  0.28350248     0.85000
N153        N  0.80842399  0.78107952  0.31210001    -0.77500
Zn154      Zn  0.01025588  0.90931175  0.49887674     1.49700
Zn155      Zn  0.99585296  0.92949227  0.41764368     1.49400
Zn156      Zn  0.89008556  0.89746788  0.46595234     1.49100
Zn157      Zn  0.94827375  0.99617039  0.47662021     1.49500
O158        O  0.96110877  0.93340377  0.46441726    -1.81900
O159        O  0.07600691  0.88156276  0.47555695    -0.72600
O160        O  0.94480396  0.89143970  0.38544599    -0.72400
O161        O  0.91750130  0.84726207  0.01080994    -0.71900
O162        O  0.07035949  0.89879481  0.41957778    -0.72600
O163        O  0.00860303  0.86087924  0.02179555    -0.72200
O164        O  0.86822288  0.87488171  0.41769606    -0.72800
O165        O  0.87169697  0.99916357  0.99936337    -0.72100
O166        O  0.00727014  0.99136504  0.39634484    -0.72900
O167        O  0.82869408  0.93364984  0.48695470    -0.72300
O168        O  0.96608110  0.03591631  0.43544872    -0.72800
O169        O  0.00299894  0.01779706  0.01934170    -0.72700
O170        O  0.06092820  0.96262745  0.02549525    -0.72500
C171        C  0.09506509  0.88026095  0.44443611     0.79300
C172        C  0.89539171  0.87333234  0.38879270     0.79800
C173        C  0.96255699  0.83819811  0.02610485     0.78800
C174        C  0.83229859  0.97030693  0.00629549     0.79200
C175        C  0.99132503  0.02975326  0.40626852     0.80300
C176        C  0.04506315  0.00147270  0.03386642     0.79300
C177        C  0.84298463  0.67071045  0.22720510     0.82400
N178        N  0.82707792  0.71146914  0.23898539    -0.75900
C179        C  0.80452756  0.71656294  0.27154843     0.84900
N180        N  0.79711925  0.68060811  0.29231168    -0.75800
C181        C  0.81223077  0.63973299  0.28050119     0.85000
N182        N  0.83458652  0.63488676  0.24787973    -0.77500
C183        C  0.93864134  0.65079330  0.08830315     0.82400
N184        N  0.95226794  0.68847637  0.07074540    -0.75900
C185        C  0.94405295  0.72894558  0.08587466     0.84900
N186        N  0.92151933  0.73185781  0.11848073    -0.75800
C187        C  0.90765950  0.69435344  0.13635014     0.85000
N188        N  0.91611296  0.65357652  0.12112399    -0.77500
C189        C  0.86828381  0.66455288  0.19197678    -0.14200
C190        C  0.88219340  0.69921611  0.17158294    -0.29400
H191        H  0.87630591  0.63081910  0.18289446     0.14800
H192        H  0.87489855  0.73292787  0.18105316     0.15400
C193        C  0.96095003  0.80088456  0.04863095    -0.11100
C194        C  0.95532530  0.76845331  0.06637674    -0.12600
C195        C  0.81360874  0.84373248  0.35496984    -0.14200
C196        C  0.86975380  0.84918093  0.35844504    -0.29400
H197        H  0.78566990  0.85953504  0.37372660     0.14800
H198        H  0.89749306  0.83691462  0.33791901     0.15400
C199        C  0.12142524  0.01460016  0.07700538    -0.14200
C200        C  0.07524474  0.02849040  0.06125222    -0.29400
H201        H  0.13826885  0.98276333  0.06918754     0.14800
H202        H  0.05864328  0.06051147  0.06877762     0.15400
C203        C  0.00269091  0.06781612  0.38438730    -0.11100
C204        C  0.01134989  0.10234137  0.36900637    -0.12600
C205        C  0.06708082  0.20140595  0.27215637    -0.14200
C206        C  0.07894068  0.16787457  0.24983377    -0.29400
H207        H  0.07276379  0.23566022  0.26378592     0.14800
H208        H  0.07340657  0.13367619  0.25837019     0.15400
C209        C  0.94574720  0.60833913  0.07102377    -0.11100
C210        C  0.95112734  0.57431267  0.05407522    -0.12600
C211        C  0.00253718  0.29549633  0.40328729    -0.11100
C212        C  0.01003922  0.26284974  0.38504329    -0.12600
C213        C  0.85481726  0.53161094  0.36992330    -0.14200
C214        C  0.84714159  0.49086960  0.38367442    -0.29400
H215        H  0.88878894  0.55429671  0.37920588     0.14800
H216        H  0.81403285  0.46784774  0.37370957     0.15400
C217        C  0.05951935  0.34870636  0.08045029    -0.14200
C218        C  0.11116613  0.33273889  0.07747110    -0.29400
H219        H  0.03703696  0.34663779  0.10532351     0.14800
H220        H  0.13606782  0.33807565  0.05382117     0.15400
C221        C  0.53894463  0.19692053  0.43103036    -0.14200
C222        C  0.54556695  0.16274755  0.45213056    -0.29400
H223        H  0.54787234  0.23086437  0.44070707     0.14800
H224        H  0.53776855  0.12875119  0.44226453     0.15400
C225        C  0.48595546  0.06822435  0.30969774    -0.11100
C226        C  0.49412472  0.10222844  0.32693170    -0.12600
C227        C  0.28883270  0.98916233  0.16135945    -0.14200
C228        C  0.27616936  0.03223943  0.16188662    -0.29400
H229        H  0.26124025  0.96435609  0.14811020     0.14800
H230        H  0.30210951  0.05652436  0.17685356     0.15400
C231        C  0.64151337  0.86742955  0.27816835    -0.14200
C232        C  0.67300705  0.83690572  0.26189237    -0.29400
H233        H  0.65018922  0.87722285  0.30518546     0.14800
H234        H  0.66209496  0.82476867  0.23572220     0.15400
C235        C  0.78035613  0.98486529  0.02334368    -0.14200
C236        C  0.76767126  0.02789821  0.02450750    -0.29400
H237        H  0.75204477  0.95981878  0.03511527     0.14800
H238        H  0.79406610  0.05253421  0.01082598     0.15400
C239        C  0.57797213  0.02346086  0.13380561    -0.14200
C240        C  0.62188349  0.00884668  0.11523380    -0.29400
H241        H  0.56228222  0.05616103  0.12900444     0.14800
H242        H  0.63830123  0.97648579  0.12032619     0.15400
C243        C  0.17464107  0.85707391  0.40723946    -0.14200
C244        C  0.14630918  0.85540863  0.43767223    -0.29400
H245        H  0.16135235  0.87882318  0.38694078     0.14800
H246        H  0.16131606  0.83531814  0.45855649     0.15400
C247        C  0.34813864  0.83682167  0.34045842    -0.14200
C248        C  0.33057011  0.85802302  0.31256389    -0.29400
H249        H  0.39258538  0.83073408  0.34350366     0.14800
H250        H  0.28572241  0.86068597  0.30802358     0.15400
C251        C  0.44460719  0.75538044  0.13012832    -0.11100
C252        C  0.45202974  0.79060253  0.14570123    -0.12600
C253        C  0.37955568  0.66573512  0.02846696    -0.14200
C254        C  0.36989114  0.70158724  0.00949290    -0.29400
H255        H  0.37029508  0.63240378  0.01761324     0.14800
H256        H  0.37864976  0.73493256  0.02045074     0.15400
C257        C  0.43029191  0.56232429  0.15389026    -0.11100
C258        C  0.42559019  0.59479657  0.13649284    -0.12600
C259        C  0.51231733  0.29635300  0.30296421    -0.11100
C260        C  0.51545428  0.26246908  0.31873644    -0.12600
C261        C  0.64200243  0.52624837  0.28227357    -0.14200
C262        C  0.68638516  0.50836511  0.29707147    -0.29400
H263        H  0.64138464  0.56219890  0.27963452     0.14800
H264        H  0.68559964  0.47283225  0.30196152     0.15400
C265        C  0.26586582  0.34877100  0.15950659    -0.14200
C266        C  0.28985002  0.34285935  0.19046777    -0.29400
H267        H  0.28433584  0.37355679  0.14202025     0.14800
H268        H  0.26992333  0.31981186  0.20880765     0.15400
C269        C  0.74089095  0.33848436  0.02722982    -0.14200
C270        C  0.77367558  0.37156822  0.04145532    -0.29400
H271        H  0.75356862  0.32326554  0.00245232     0.12000
H272        H  0.76329230  0.38529659  0.06715740     0.15400
C273        C  0.57647520  0.34238117  0.10912835    -0.14200
C274        C  0.59717053  0.37009696  0.13436809    -0.29400
H275        H  0.53166505  0.33291073  0.10919063     0.14800
H276        H  0.64251807  0.37628198  0.13656380     0.15400
C277        C  0.19094722  0.51016549  0.42587387    -0.14200
C278        C  0.14319227  0.52659892  0.43873941    -0.29400
H279        H  0.19397025  0.47441729  0.42159547     0.14800
H280        H  0.13918479  0.56252375  0.44063772     0.15400
C281        C  0.35063960  0.53941599  0.34608489    -0.14200
C282        C  0.34741270  0.49691949  0.33393626    -0.29400
H283        H  0.38104256  0.56337979  0.33489233     0.14800
H284        H  0.31777344  0.47289485  0.34577862     0.15400
C285        C  0.30378574  0.54912345  0.87399052     0.82400
N286        N  0.32105048  0.58984235  0.88732008    -0.75900
C287        C  0.29002882  0.61058166  0.91216015     0.84900
N288        N  0.24064126  0.59109576  0.92331627    -0.75800
C289        C  0.22238305  0.55044540  0.91041625     0.85000
N290        N  0.25422453  0.52909038  0.88568347    -0.77500
C291        C  0.63237168  0.31840165  0.58759804     0.82400
N292        N  0.67952948  0.33600101  0.57162347    -0.75900
C293        C  0.70070690  0.31603366  0.54231138     0.84900
N294        N  0.67517866  0.27781410  0.52946133    -0.75800
C295        C  0.62911183  0.25911704  0.54568299     0.85000
N296        N  0.60747969  0.27943589  0.57481324    -0.77500
Zn297      Zn  0.42896839  0.42164659  0.68235707     1.49700
Zn298      Zn  0.45998925  0.48705532  0.74826329     1.49400
Zn299      Zn  0.40501952  0.39068103  0.76022024     1.49100
Zn300      Zn  0.53418445  0.40183032  0.73112101     1.49500
O301        O  0.45754072  0.42532134  0.73037994    -1.81900
O302        O  0.42093099  0.48380601  0.66363955    -0.72600
O303        O  0.40483052  0.49621606  0.78903193    -0.72400
O304        O  0.34513103  0.35746435  0.73211664    -0.71900
O305        O  0.44012512  0.52812652  0.71008867    -0.72600
O306        O  0.35375445  0.38673243  0.67950229    -0.72200
O307        O  0.36444125  0.42877929  0.79608760    -0.72800
O308        O  0.53391743  0.35002368  0.76374082    -0.72100
O309        O  0.53913651  0.50632945  0.76312492    -0.72900
O310        O  0.44609863  0.34493014  0.78518943    -0.72300
O311        O  0.59244526  0.44889181  0.75033677    -0.72800
O312        O  0.55764393  0.37728107  0.68258991    -0.72700
O313        O  0.48158031  0.38727309  0.65077174    -0.72500
C314        C  0.42647646  0.52246138  0.67819060     0.79300
C315        C  0.36925955  0.47004734  0.80457318     0.79800
C316        C  0.32820191  0.36080339  0.70098207     0.78800
C317        C  0.49623939  0.33195862  0.78342203     0.79200
C318        C  0.58689078  0.48861276  0.76231416     0.80300
C319        C  0.53051883  0.37226009  0.65396978     0.79300
C320        C  0.34563938  0.69766219  0.97413906     0.82400
N321        N  0.33243788  0.65707076  0.95897661    -0.75900
C322        C  0.30912290  0.65410512  0.92674074     0.84900
N323        N  0.29833123  0.69181002  0.90971034    -0.75800
C324        C  0.31097697  0.73243004  0.92484314     0.85000
N325        N  0.33380100  0.73524232  0.95723280    -0.77500
C326        C  0.40853889  0.71378527  0.62187659     0.82400
N327        N  0.38727778  0.71111272  0.58908342    -0.75900
C328        C  0.37417768  0.67061498  0.57370638     0.84900
N329        N  0.38248707  0.63287799  0.59133015    -0.75800
C330        C  0.40348562  0.63539491  0.62413801     0.85000
N331        N  0.41652600  0.67587978  0.63946367    -0.77500
C332        C  0.28918278  0.82180348  0.86230146     0.82400
N333        N  0.31160403  0.78634899  0.87765310    -0.75900
C334        C  0.29105227  0.77243908  0.90903607     0.84900
N335        N  0.24865410  0.79407475  0.92504794    -0.75800
C336        C  0.22558101  0.82879384  0.90952473     0.85000
N337        N  0.24570973  0.84240593  0.87804202    -0.77500
C338        C  0.63888321  0.03256893  0.57957797     0.82400
N339        N  0.61690581  0.07202535  0.57142046    -0.75900
C340        C  0.64213476  0.09797007  0.54676352     0.84900
N341        N  0.68903505  0.08434501  0.52987825    -0.75800
C342        C  0.71097220  0.04496608  0.53752097     0.85000
N343        N  0.68567005  0.01894639  0.56232187    -0.77500
Zn344      Zn  0.46138791  0.99687463  0.71663401     1.49700
Zn345      Zn  0.49319133  0.93233333  0.77539879     1.49400
Zn346      Zn  0.39396433  0.90316215  0.72232455     1.49100
Zn347      Zn  0.52523654  0.90804267  0.69615991     1.49500
O348        O  0.46830666  0.93458618  0.72721730    -1.81900
O349        O  0.48205117  0.03778653  0.75683806    -0.72600
O350        O  0.44436457  0.88890810  0.80215731    -0.72400
O351        O  0.33397044  0.94449238  0.70521181    -0.71900
O352        O  0.49293342  0.99191403  0.80060877    -0.72600
O353        O  0.38237581  0.00978111  0.70527978    -0.72200
O354        O  0.36881220  0.87643732  0.76869223    -0.72800
O355        O  0.49115365  0.85219974  0.67202283    -0.72100
O356        O  0.57196091  0.91288125  0.77780286    -0.72900
O357        O  0.40058287  0.85054004  0.68862510    -0.72300
O358        O  0.59336529  0.89019408  0.72371049    -0.72800
O359        O  0.55329804  0.95251830  0.65960693    -0.72700
O360        O  0.50924452  0.01378029  0.67552502    -0.72500
C361        C  0.49067357  0.03094020  0.78885076     0.79300
C362        C  0.39527902  0.87130574  0.79705108     0.79800
C363        C  0.33677351  0.98661098  0.70082883     0.78800
C364        C  0.44148548  0.83398992  0.67169249     0.79200
C365        C  0.60571140  0.89567024  0.75594160     0.80300
C366        C  0.54299626  0.99340685  0.65544252     0.79300
C367        C  0.51953282  0.22386812  0.84155529     0.82400
N368        N  0.51096455  0.18301778  0.82612680    -0.75900
C369        C  0.51276948  0.14593691  0.84542610     0.84900
N370        N  0.52323516  0.14965055  0.88011754    -0.75800
C371        C  0.53162150  0.19064708  0.89566029     0.85000
N372        N  0.52972602  0.22772608  0.87627299    -0.77500
C373        C  0.57638937  0.16548759  0.98816796     0.82400
N374        N  0.58434519  0.20652378  0.00352419    -0.75900
C375        C  0.60768189  0.21484825  0.53330746     0.84900
N376        N  0.62573801  0.17798796  0.54894838    -0.75800
C377        C  0.61481478  0.13684655  0.53420105     0.85000
N378        N  0.59523362  0.12941259  0.00411218    -0.77500
C379        C  0.11622562  0.30641133  0.61709154     0.82400
N380        N  0.16428526  0.32971161  0.62668318    -0.75900
C381        C  0.19948486  0.31330887  0.65018757     0.84900
N382        N  0.18698767  0.27268499  0.66393300    -0.75800
C383        C  0.13973098  0.24846221  0.65400872     0.85000
N384        N  0.10379908  0.26561439  0.63087923    -0.77500
C385        C  0.80482494  0.54491029  0.84233207     0.82400
N386        N  0.76156378  0.51719432  0.83028411    -0.75900
C387        C  0.72792658  0.53008762  0.80418343     0.84900
N388        N  0.73867394  0.57047776  0.78966881    -0.75800
C389        C  0.78146743  0.59832616  0.80146029     0.85000
N390        N  0.81460674  0.58545676  0.82771854    -0.77500
Zn391      Zn  0.97442796  0.48913775  0.96178238     1.49700
Zn392      Zn  0.95420423  0.43102835  0.53322507     1.49400
Zn393      Zn  0.89820820  0.39705772  0.95806119     1.49100
Zn394      Zn  0.03029306  0.39603534  0.97523717     1.49500
O395        O  0.96146066  0.42935789  0.98137239    -1.81900
O396        O  0.96447115  0.53600270  0.00067666    -0.72600
O397        O  0.87809617  0.40110762  0.54256430    -0.72400
O398        O  0.86322904  0.43628651  0.92362507    -0.71900
O399        O  0.95001404  0.49396899  0.55453462    -0.72600
O400        O  0.91665371  0.49930978  0.92327515    -0.72200
O401        O  0.83609162  0.37725583  0.99202270    -0.72800
O402        O  0.01683330  0.34518310  0.94090596    -0.72100
O403        O  0.01272428  0.39536614  0.55747161    -0.72900
O404        O  0.92475803  0.34423532  0.93005276    -0.72300
O405        O  0.07644107  0.38494552  0.51519543    -0.72800
O406        O  0.09483940  0.43378908  0.95455075    -0.72700
O407        O  0.05558571  0.49729103  0.94225354    -0.72500
C408        C  0.94373477  0.53114898  0.53999658     0.79300
C409        C  0.84116257  0.38053635  0.52356319     0.79800
C410        C  0.87463530  0.47500238  0.91195242     0.78800
C411        C  0.97331304  0.32881561  0.92530884     0.79200
C412        C  0.05933884  0.38032565  0.54657684     0.80300
C413        C  0.09817105  0.47265832  0.94188614     0.79300
C414        C  0.99829595  0.22255703  0.86026388     0.82400
N415        N  0.98740707  0.18168922  0.87354722    -0.75900
C416        C  0.99966817  0.14461995  0.85465884     0.84900
N417        N  0.02350739  0.14840289  0.82238187    -0.75800
C418        C  0.03461066  0.18951444  0.80885792     0.85000
N419        N  0.02191642  0.22657873  0.82796922    -0.77500
C420        C  0.10181007  0.16310547  0.71918875     0.82400
N421        N  0.11697618  0.12542763  0.70204764    -0.75900
C422        C  0.13655065  0.12672449  0.66868186     0.84900
N423        N  0.14170254  0.16646700  0.65223959    -0.75800
C424        C  0.12744419  0.20471834  0.66952575     0.85000
N425        N  0.10782063  0.20289306  0.70301676    -0.77500
C426        C  0.13642141  0.02653447  0.61016096     0.82400
N427        N  0.12553997  0.06808235  0.62292504    -0.75900
C428        C  0.15325052  0.08490809  0.65165431     0.84900
N429        N  0.19143834  0.05997648  0.66755137    -0.75800
C430        C  0.20286152  0.01872131  0.65456468     0.85000
N431        N  0.17484329  0.00218070  0.62613436    -0.77500
C432        C  0.79859396  0.82770974  0.81947131     0.82400
N433        N  0.75998627  0.84819352  0.80039975    -0.75900
C434        C  0.73077762  0.82526506  0.77483872     0.84900
N435        N  0.74173559  0.78207416  0.76774385    -0.75800
C436        C  0.77980300  0.76108848  0.78687211     0.85000
N437        N  0.80832976  0.78389727  0.81283705    -0.77500
Zn438      Zn  0.02908588  0.91429591  0.99259268     1.49700
Zn439      Zn  0.97836372  0.93111795  0.91625383     1.49400
Zn440      Zn  0.89857533  0.89410927  0.97728897     1.49100
Zn441      Zn  0.95053804  0.99529799  0.98083793     1.49500
O442        O  0.96420532  0.93372769  0.96676980    -1.81900
O443        O  0.08939044  0.89576779  0.95904157    -0.72600
O444        O  0.91901693  0.89232528  0.89097361    -0.72400
O445        O  0.89416699  0.84404186  0.49706378    -0.71900
O446        O  0.05376069  0.90566875  0.90637951    -0.72600
O447        O  0.97253599  0.86019779  0.52690890    -0.72200
O448        O  0.86808815  0.86181855  0.93405296    -0.72800
O449        O  0.86760341  0.00239833  0.49314055    -0.72100
O450        O  0.98095812  0.99186916  0.89527633    -0.72900
O451        O  0.83696758  0.92888993  0.99966446    -0.72300
O452        O  0.96183003  0.03694934  0.94049219    -0.72800
O453        O  0.99888654  0.01900972  0.51638835    -0.72700
O454        O  0.04047710  0.95763790  0.53126958    -0.72500
C455        C  0.09297966  0.89343312  0.92582244     0.79300
C456        C  0.87945085  0.86570763  0.90168940     0.79800
C457        C  0.92821708  0.83575346  0.52121603     0.78800
C458        C  0.82585972  0.97437092  0.49659638     0.79200
C459        C  0.97398546  0.03057611  0.90834079     0.80300
C460        C  0.03305592  0.99919238  0.53536300     0.79300
C461        C  0.82572579  0.67026653  0.72875881     0.82400
N462        N  0.81475534  0.71124408  0.74204006    -0.75900
C463        C  0.79557662  0.71650434  0.77529767     0.84900
N464        N  0.78624970  0.68015873  0.79557212    -0.75800
C465        C  0.79638551  0.63874994  0.78208134     0.85000
N466        N  0.81574045  0.63405797  0.74871573    -0.77500
C467        C  0.90961564  0.64895431  0.58872494     0.82400
N468        N  0.91577703  0.68538569  0.56844473    -0.75900
C469        C  0.90306204  0.72619697  0.58161793     0.84900
N470        N  0.88421703  0.73049921  0.61509785    -0.75800
C471        C  0.87781390  0.69411965  0.63543459     0.85000
N472        N  0.89056528  0.65334358  0.62210658    -0.77500
C473        C  0.84710321  0.66461495  0.69266255    -0.14200
C474        C  0.85681073  0.69944798  0.67163543    -0.29400
H475        H  0.85485898  0.63098388  0.68321904     0.14800
H476        H  0.84876409  0.73304008  0.68106395     0.15400
C477        C  0.91702966  0.79735563  0.54241440    -0.11100
C478        C  0.90993960  0.76488719  0.56024351    -0.12600
C479        C  0.83225448  0.85432095  0.84528440    -0.14200
C480        C  0.84621906  0.83818887  0.87615646    -0.29400
H481        H  0.84325755  0.88896182  0.83951915     0.14800
H482        H  0.83051214  0.80508238  0.88349084     0.15400
C483        C  0.10546861  0.00549597  0.58049260    -0.14200
C484        C  0.06466590  0.02467289  0.56299936    -0.29400
H485        H  0.11615009  0.97158496  0.57342387     0.14800
H486        H  0.05400128  0.05878507  0.56927290     0.15400
C487        C  0.98142234  0.06839943  0.88635908    -0.11100
C488        C  0.98950320  0.10187184  0.86996638    -0.12600
C489        C  0.06039586  0.19454283  0.77374525    -0.14200
C490        C  0.07829864  0.15947686  0.75492237    -0.29400
H491        H  0.06447558  0.22780263  0.76317282     0.14800
H492        H  0.07462223  0.12634759  0.76576340     0.15400
C493        C  0.92243762  0.60568706  0.57466293    -0.11100
C494        C  0.93260668  0.57034335  0.56080838    -0.12600
C495        C  0.97967343  0.29217709  0.90119008    -0.11100
C496        C  0.98736489  0.26122505  0.88140212    -0.12600
C497        C  0.84277920  0.53103420  0.87026266    -0.14200
C498        C  0.83715861  0.49059508  0.88455514    -0.29400
H499        H  0.87646090  0.55441865  0.87888964     0.14800
H500        H  0.80337695  0.46737105  0.87579271     0.15400
C501        C  0.09615820  0.35821013  0.57071877    -0.14200
C502        C  0.07721867  0.32650337  0.59276329    -0.29400
H503        H  0.14113845  0.36663306  0.56878636     0.14800
H504        H  0.03307731  0.31503587  0.59261017     0.15400
C505        C  0.54547151  0.19552526  0.93289678    -0.14200
C506        C  0.55388469  0.16021054  0.95263558    -0.29400
H507        H  0.55225683  0.22918467  0.94368334     0.14800
H508        H  0.54823868  0.12655906  0.94164991     0.15400
C509        C  0.49821043  0.06871517  0.81206920    -0.11100
C510        C  0.50467914  0.10298509  0.82879278    -0.12600
C511        C  0.28727714  0.01062018  0.69011800    -0.14200
C512        C  0.24603791  0.99174186  0.67031684    -0.29400
H513        H  0.28824149  0.04640765  0.69543394     0.14800
H514        H  0.24720252  0.95665338  0.66268859     0.15400
C515        C  0.65938411  0.88111864  0.76951517    -0.14200
C516        C  0.68528877  0.84584352  0.75587805    -0.29400
H517        H  0.67368051  0.89607697  0.79422733     0.14800
H518        H  0.66838489  0.82861899  0.73266808     0.15400
C519        C  0.77326587  0.98832280  0.51353832    -0.14200
C520        C  0.76222607  0.03135479  0.51889167    -0.29400
H521        H  0.74297288  0.96243013  0.52208433     0.14800
H522        H  0.79058803  0.05732809  0.50841977     0.15400
C523        C  0.56982519  0.01905460  0.62694154    -0.14200
C524        C  0.61219432  0.00438526  0.60685679    -0.29400
H525        H  0.55485362  0.05223881  0.62317538     0.14800
H526        H  0.62851526  0.97176474  0.61108048     0.15400
C527        C  0.17822996  0.85053889  0.92676914    -0.14200
C528        C  0.14328177  0.87536387  0.90910266    -0.29400
H529        H  0.16986004  0.84362630  0.95412826     0.14800
H530        H  0.14961127  0.88009179  0.88125075     0.15400
C531        C  0.31335363  0.84016304  0.82987734    -0.14200
C532        C  0.36933634  0.84482330  0.82534396    -0.29400
H533        H  0.28546257  0.85590270  0.81210461     0.14800
H534        H  0.39703304  0.83291397  0.84515345     0.15400
C535        C  0.42160036  0.75675601  0.63814399    -0.11100
C536        C  0.43136142  0.79255962  0.65252372    -0.12600
C537        C  0.35156647  0.66673755  0.53800018    -0.14200
C538        C  0.33895858  0.70237393  0.51958949    -0.29400
H539        H  0.34554092  0.63337652  0.52651267     0.14800
H540        H  0.34462528  0.73574742  0.53110014     0.15400
C541        C  0.41764393  0.56129732  0.65817183    -0.11100
C542        C  0.41128631  0.59511204  0.64260577    -0.12600
C543        C  0.50988210  0.29507619  0.80400325    -0.11100
C544        C  0.51631610  0.26291616  0.82129225    -0.12600
C545        C  0.63634348  0.51630701  0.77479993    -0.14200
C546        C  0.68071287  0.50002970  0.79108262    -0.29400
H547        H  0.63422289  0.55220181  0.77244102     0.14800
H548        H  0.68112253  0.46460688  0.79619551     0.15400
C549        C  0.25047629  0.34026755  0.66048993    -0.14200
C550        C  0.27807276  0.33321576  0.69006005    -0.29400
H551        H  0.26411853  0.36785830  0.64409357     0.14800
H552        H  0.26260489  0.30711916  0.70737523     0.15400
C553        C  0.75179092  0.33459416  0.52448996    -0.14200
C554        C  0.78900718  0.36291166  0.54073272    -0.29400
H555        H  0.76029780  0.32296029  0.49790521     0.12000
H556        H  0.78183929  0.37269392  0.56790617     0.15400
C557        C  0.60984897  0.34153665  0.61912133    -0.14200
C558        C  0.55438635  0.34724699  0.62368224    -0.29400
H559        H  0.63974360  0.35748163  0.63735482     0.14800
H560        H  0.52528468  0.33452574  0.60364405     0.15400
C561        C  0.16635158  0.53238800  0.92250520    -0.14200
C562        C  0.15309350  0.48877588  0.92642659    -0.29400
H563        H  0.13634193  0.55655566  0.93145544     0.14800
H564        H  0.18449831  0.46452769  0.92017800     0.15400
C565        C  0.33919126  0.52930616  0.84595961    -0.14200
C566        C  0.33209682  0.48743786  0.83288777    -0.29400
H567        H  0.37370787  0.55059434  0.83592027     0.14800
H568        H  0.29881204  0.46530734  0.84332289     0.15400
loop_ 
_geom_bond_atom_site_label_1 
_geom_bond_atom_site_label_2 
_geom_bond_distance 
_geom_bond_site_symmetry_2 
_ccdc_geom_bond_type 
C1            N2   1.360       .  A
C1            N6   1.359       .  A
C1          C281   1.478       .  S
N2            C3   1.360       .  A
C3            N4   1.357       .  A
C3           C38   1.462       .  S
N4            C5   1.358       .  A
C5            N6   1.354       .  A
C5          C277   1.472       .  S
C7            N8   1.367       .  A
C7           N12   1.358       .  A
C7          C273   1.475       .  S
N8            C9   1.365       .  A
C9           N10   1.352       .  A
C9          C269   1.475       .  S
N10          C11   1.351       .  A
C11          N12   1.353       .  A
C11          C91   1.452       .  S
Zn13         O17   1.964       .  S
Zn13         O18   2.027       .  S
Zn13         O22   2.040       .  S
Zn13         O29   2.038       .  S
Zn14         O17   1.960       .  S
Zn14         O19   2.025       .  S
Zn14         O21   2.004       .  S
Zn14         O25   2.013       .  S
Zn15         O17   1.950       .  S
Zn15         O20   2.001       .  S
Zn15         O23   2.003       .  S
Zn15         O26   1.992       .  S
Zn16         O17   1.962       .  S
Zn16         O24   2.019       .  S
Zn16         O27   2.016       .  S
Zn16         O28   2.016       .  S
O18          C30   1.274       .  A
O19          C31   1.274       .  A
O20          C32   1.269       .  A
O21          C30   1.271       .  A
O22          C32   1.277       .  A
O23          C31   1.271       .  A
O24          C33   1.272       .  A
O25          C34   1.272       .  A
O26          C33   1.269       .  A
O27          C34   1.273       .  A
O28          C35   1.272       .  A
O29          C35   1.277       .  A
C30         C257   1.433       .  S
C31         C282   1.472       .  S
C32         C266   1.477       .  S
C33         C259   1.428       .  S
C34         C261   1.472       .  S
C35         C274   1.478       .  S
C36          N37   1.359       .  A
C36          N41   1.357       .  A
C36         C538   1.475       .  S
N37          C38   1.356       .  A
C38          N39   1.357       .  A
N39          C40   1.359       .  A
C40          N41   1.357       .  A
C40          C50   1.459       .  S
C42          N43   1.357       .  A
C42          N47   1.356       .  A
C42         C251   1.436       .  S
N43          C44   1.361       .  A
C44          N45   1.358       .  A
C44         C253   1.475       .  S
N45          C46   1.356       .  A
C46          N47   1.356       .  A
C46         C258   1.434       .  S
C48          N49   1.355       .  A
C48          N53   1.357       .  A
C48         C247   1.464       .  S
N49          C50   1.356       .  A
C50          N51   1.360       .  A
N51          C52   1.361       .  A
C52          N53   1.353       .  A
C52         C243   1.474       .  S
C54          N55   1.361       .  A
C54          N59   1.356       .  A
C54         C240   1.471       .  S
N55          C56   1.354       .  A
C56          N57   1.354       .  A
C56          C93   1.453       .  S
N57          C58   1.353       .  A
C58          N59   1.358       .  A
C58         C236   1.465       .  S
Zn60         O64   1.952       .  S
Zn60         O65   2.022   1_565  S
Zn60         O69   2.023   1_565  S
Zn60         O76   1.988   1_565  S
Zn61         O64   1.955       .  S
Zn61         O66   2.009       .  S
Zn61         O68   2.031       .  S
Zn61         O72   2.012       .  S
Zn62         O64   1.951       .  S
Zn62         O67   2.011       .  S
Zn62         O70   1.998       .  S
Zn62         O73   2.004       .  S
Zn63         O64   1.966       .  S
Zn63         O71   2.030       .  S
Zn63         O74   2.033       .  S
Zn63         O75   2.025       .  S
O65          C77   1.272       .  A
O66          C78   1.274       .  A
O67          C79   1.270       .  A
O68          C77   1.272   1_565  A
O69          C79   1.274   1_545  A
O70          C78   1.271       .  A
O71          C80   1.273       .  A
O72          C81   1.272       .  A
O73          C80   1.270       .  A
O74          C81   1.275       .  A
O75          C82   1.277       .  A
O76          C82   1.270   1_545  A
C77         C225   1.441       .  S
C78         C248   1.462       .  S
C79         C227   1.477       .  S
C80         C252   1.435       .  S
C81         C231   1.475       .  S
C82         C239   1.467   1_565  S
C83          N84   1.355       .  A
C83          N88   1.352       .  A
C83         C260   1.429       .  S
N84          C85   1.357       .  A
C85          N86   1.362       .  A
C85         C226   1.441       .  S
N86          C87   1.365       .  A
C87          N88   1.354       .  A
C87         C221   1.475       .  S
C89          N90   1.363       .  A
C89          N94   1.352       .  A
C89         C222   1.476       .  S
N90         C375   1.362       .  A
C91          N92   1.358       .  A
C91         N374   1.354       .  A
N92          C93   1.357       .  A
C93         N378   1.355       .  A
N94         C377   1.352       .  A
C95          N96   1.354       .  A
C95         N100   1.361       .  A
C95         C218   1.468       .  S
N96          C97   1.354       .  A
C97          N98   1.362       .  A
C97         C265   1.476       .  S
N98          C99   1.361       .  A
C99         N100   1.361       .  A
C99         C140   1.470       .  S
C101        N102   1.360       .  A
C101        N106   1.362       .  A
C101        C213   1.480       .  S
N102        C103   1.355       .  A
C103        N104   1.357       .  A
C103        C262   1.473       .  S
N104        C105   1.355       .  A
C105        N106   1.360       .  A
C105        C181   1.464       .  S
Zn107       O111   1.951       .  S
Zn107       O112   1.997       .  S
Zn107       O116   2.016       .  S
Zn107       O123   2.000   1_655  S
Zn108       O395   1.962   1_554  S
Zn108       O113   2.012       .  S
Zn108       O115   2.001       .  S
Zn108       O119   2.012       .  S
Zn109       O111   1.958       .  S
Zn109       O114   2.023       .  S
Zn109       O117   2.029       .  S
Zn109       O120   2.023       .  S
Zn110       O111   1.960   1_455  S
Zn110       O118   2.024       .  S
Zn110       O122   2.027       .  S
Zn110       O405   2.011       .  S
O111       Zn392   1.964       .  S
O112        C408   1.270       .  A
O113        C125   1.269       .  A
O114        C126   1.274       .  A
O115        C124   1.271       .  A
O116        C126   1.273       .  A
O117        C409   1.276       .  A
O118        C127   1.273   1_455  A
O119        C128   1.272   1_655  A
O120        C127   1.273       .  A
O121       Zn394   2.029   1_554  S
O121        C128   1.276       .  A
O122        C129   1.275       .  A
O123        C129   1.270       .  A
C124        O396   1.276       .  A
C124        C210   1.436       .  S
C125        C270   1.480       .  S
C125        O401   1.276   1_554  A
C126        C214   1.476       .  S
C127        C211   1.437   1_655  S
C128        C217   1.476       .  S
C129        C278   1.472       .  S
C130        N131   1.357       .  A
C130        N135   1.355       .  A
C130        C212   1.437       .  S
N131        C132   1.358       .  A
C132        N133   1.363       .  A
C132        C204   1.447       .  S
N133        C134   1.366       .  A
C134        N135   1.357       .  A
C134        C205   1.483       .  S
C136        N137   1.354       .  A
C136        N141   1.365       .  A
C136        C206   1.481       .  S
N137        C138   1.353       .  A
C138        N139   1.356       .  A
C138        C144   1.458       .  S
N139        C140   1.360       .  A
C140        N141   1.365       .  A
C142        N143   1.364       .  A
C142        N147   1.362       .  A
C142        C199   1.479       .  S
N143        C144   1.358       .  A
C144        N145   1.353       .  A
N145        C146   1.352       .  A
C146        N147   1.360       .  A
C146        C228   1.473       .  S
C148        N149   1.356       .  A
C148        N153   1.359       .  A
C148        C195   1.471       .  S
N149        C150   1.359       .  A
C150        N151   1.360       .  A
C150        C232   1.480       .  S
N151        C152   1.361       .  A
C152        N153   1.358       .  A
C152        C179   1.467       .  S
Zn154       O158   1.946   1_455  S
Zn154       O159   1.994       .  S
Zn154       O447   2.014   1_455  S
Zn154       O454   1.995       .  S
Zn155       O158   1.965       .  S
Zn155       O160   2.029       .  S
Zn155       O162   2.035   1_655  S
Zn155       O166   2.052   1_655  S
Zn156       O158   1.957       .  S
Zn156       O164   2.015       .  S
Zn156       O167   2.006       .  S
Zn156       O445   2.029       .  S
Zn157       O158   1.966       .  S
Zn157       O168   2.029   1_565  S
Zn157       O449   2.024   1_565  S
Zn157       O453   2.034   1_565  S
O159        C171   1.269       .  A
O160        C172   1.275       .  A
O161       Zn440   1.998   1_554  S
O161        C173   1.269       .  A
O162        C171   1.277       .  A
O163       Zn438   2.015   1_554  S
O163        C173   1.270   1_455  A
O164        C172   1.275       .  A
O165       Zn441   2.000       .  S
O165        C174   1.274   1_556  A
O166        C175   1.277   1_465  A
O167        C458   1.272       .  A
O168        C175   1.274       .  A
O169       Zn441   2.021   1_444  S
O169        C176   1.272       .  A
O170       Zn438   2.020   1_554  S
O170        C176   1.274   1_565  A
C171        C244   1.473       .  S
C172        C196   1.474       .  S
C173        C193   1.430       .  S
C174        C235   1.467       .  S
C174        O451   1.272   1_554  A
C175        C203   1.447   1_655  S
C176        C200   1.478       .  S
C177        N178   1.361       .  A
C177        N182   1.357       .  A
C177        C189   1.480       .  S
N178        C179   1.358       .  A
C179        N180   1.360       .  A
N180        C181   1.359       .  A
C181        N182   1.358       .  A
C183        N184   1.354       .  A
C183        N188   1.361       .  A
C183        C209   1.436       .  S
N184        C185   1.353       .  A
C185        N186   1.354       .  A
C185        C194   1.430       .  S
N186        C187   1.357       .  A
C187        N188   1.364       .  A
C187        C190   1.478       .  S
C189        C190   1.343       .  D
C189        H191   1.086       .  S
C190        H192   1.087       .  S
C193        C194   1.203       .  T
C195        C196   1.342       .  D
C195        H197   1.087       .  S
C196        H198   1.087       .  S
C199        C200   1.345       .  D
C199        H201   1.087   1_545  S
C200        H202   1.087       .  S
C203        C204   1.213       .  T
C205        C206   1.341       .  D
C205        H207   1.086       .  S
C206        H208   1.087       .  S
C209        C210   1.206       .  T
C211        C212   1.207       .  T
C213        C214   1.347       .  D
C213        H215   1.086       .  S
C214        H216   1.086       .  S
C217        C218   1.340       .  D
C217        H219   1.087       .  S
C218        H220   1.086       .  S
C221        C222   1.338       .  D
C221        H223   1.087       .  S
C222        H224   1.087       .  S
C225        C226   1.209       .  T
C227        C228   1.341   1_565  D
C227        H229   1.087       .  S
C228        H230   1.087       .  S
C231        C232   1.345       .  D
C231        H233   1.087       .  S
C232        H234   1.087       .  S
C235        C236   1.339   1_565  D
C235        H237   1.087       .  S
C236        H238   1.087       .  S
C239        C240   1.339       .  D
C239        H241   1.087       .  S
C240        H242   1.087   1_545  S
C243        C244   1.339       .  D
C243        H245   1.087       .  S
C244        H246   1.087       .  S
C247        C248   1.338       .  D
C247        H249   1.087       .  S
C248        H250   1.087       .  S
C251        C252   1.206       .  T
C253        C254   1.344       .  D
C253        H255   1.086       .  S
C254        C320   1.476   1_554  S
C254        H256   1.086       .  S
C257        C258   1.205       .  T
C259        C260   1.202       .  T
C261        C262   1.342       .  D
C261        H263   1.087       .  S
C262        H264   1.087       .  S
C265        C266   1.340       .  D
C265        H267   1.087       .  S
C266        H268   1.087       .  S
C269        C270   1.339       .  D
C269        H271   1.087       .  S
C270        H272   1.087       .  S
C273        C274   1.340       .  D
C273        H275   1.087       .  S
C274        H276   1.087       .  S
C277        C278   1.341       .  D
C277        H279   1.087       .  S
C278        H280   1.087       .  S
C281        C282   1.345       .  D
C281        H283   1.086       .  S
C282        H284   1.087       .  S
C285        N286   1.358       .  A
C285        N290   1.370       .  A
C285        C565   1.484       .  S
N286        C287   1.353       .  A
C287        N288   1.354       .  A
C287        C322   1.460       .  S
N288        C289   1.357       .  A
C289        N290   1.369       .  A
C289        C561   1.485       .  S
C291        N292   1.360       .  A
C291        N296   1.366       .  A
C291        C557   1.483       .  S
N292        C293   1.360       .  A
C293        N294   1.354       .  A
C293        C553   1.476       .  S
N294        C295   1.356       .  A
C295        N296   1.363       .  A
C295        C375   1.468       .  S
Zn297       O301   1.965       .  S
Zn297       O302   2.034       .  S
Zn297       O306   2.028       .  S
Zn297       O313   2.026       .  S
Zn298       O301   1.956       .  S
Zn298       O303   2.046       .  S
Zn298       O305   2.011       .  S
Zn298       O309   2.022       .  S
Zn299       O301   1.960       .  S
Zn299       O304   2.003       .  S
Zn299       O307   2.027       .  S
Zn299       O310   1.992       .  S
Zn300       O301   1.982       .  S
Zn300       O308   2.019       .  S
Zn300       O311   2.056       .  S
Zn300       O312   2.060       .  S
O302        C314   1.275       .  A
O303        C315   1.277       .  A
O304        C316   1.270       .  A
O305        C314   1.272       .  A
O306        C316   1.275       .  A
O307        C315   1.272       .  A
O308        C317   1.273       .  A
O309        C318   1.274       .  A
O310        C317   1.270       .  A
O311        C318   1.278       .  A
O312        C319   1.279       .  A
O313        C319   1.274       .  A
C314        C541   1.436       .  S
C315        C566   1.489       .  S
C316        C550   1.474       .  S
C317        C543   1.427       .  S
C318        C545   1.481       .  S
C319        C558   1.486       .  S
C320        N321   1.360       .  A
C320        N325   1.357       .  A
N321        C322   1.357       .  A
C322        N323   1.357       .  A
N323        C324   1.357       .  A
C324        N325   1.357       .  A
C324        C334   1.460       .  S
C326        N327   1.357       .  A
C326        N331   1.359       .  A
C326        C535   1.439       .  S
N327        C328   1.360       .  A
C328        N329   1.357       .  A
C328        C537   1.474       .  S
N329        C330   1.355       .  A
C330        N331   1.359       .  A
C330        C542   1.437       .  S
C332        N333   1.362       .  A
C332        N337   1.355       .  A
C332        C531   1.470       .  S
N333        C334   1.359       .  A
C334        N335   1.355       .  A
N335        C336   1.354       .  A
C336        N337   1.357       .  A
C336        C527   1.468       .  S
C338        N339   1.362       .  A
C338        N343   1.359       .  A
C338        C524   1.478       .  S
N339        C340   1.355       .  A
C340        N341   1.355       .  A
C340        C377   1.457       .  S
N341        C342   1.354       .  A
C342        N343   1.361       .  A
C342        C520   1.472       .  S
Zn344       O348   1.938       .  S
Zn344       O349   1.994   1_565  S
Zn344       O353   1.988   1_565  S
Zn344       O360   1.992   1_565  S
Zn345       O348   1.947       .  S
Zn345       O350   1.996       .  S
Zn345       O352   2.009       .  S
Zn345       O356   1.988       .  S
Zn346       O348   1.968       .  S
Zn346       O351   2.056       .  S
Zn346       O354   2.038       .  S
Zn346       O357   2.023       .  S
Zn347       O348   1.972       .  S
Zn347       O355   2.030       .  S
Zn347       O358   2.041       .  S
Zn347       O359   2.043       .  S
O349        C361   1.268       .  A
O350        C362   1.270       .  A
O351        C363   1.278       .  A
O352        C361   1.269   1_565  A
O353        C363   1.268   1_545  A
O354        C362   1.277       .  A
O355        C364   1.275       .  A
O356        C365   1.269       .  A
O357        C364   1.274       .  A
O358        C365   1.276       .  A
O359        C366   1.277       .  A
O360        C366   1.270   1_545  A
C361        C509   1.427       .  S
C362        C532   1.472       .  S
C363        C511   1.475   1_565  S
C364        C536   1.438       .  S
C365        C515   1.471       .  S
C366        C523   1.472   1_565  S
C367        N368   1.354       .  A
C367        N372   1.354       .  A
C367        C544   1.428       .  S
N368        C369   1.354       .  A
C369        N370   1.354       .  A
C369        C510   1.428       .  S
N370        C371   1.359       .  A
C371        N372   1.356       .  A
C371        C505   1.468       .  S
C373        N374   1.356   1_556  A
C373        N378   1.353   1_556  A
C373        C506   1.469       .  S
C375        N376   1.361       .  A
N376        C377   1.359       .  A
C379        N380   1.358       .  A
C379        N384   1.364       .  A
C379        C502   1.480       .  S
N380        C381   1.353       .  A
C381        N382   1.359       .  A
C381        C549   1.474       .  S
N382        C383   1.359       .  A
C383        N384   1.363       .  A
C383        C424   1.470       .  S
C385        N386   1.366       .  A
C385        N390   1.361       .  A
C385        C497   1.486       .  S
N386        C387   1.361       .  A
C387        N388   1.358       .  A
C387        C546   1.487       .  S
N388        C389   1.357       .  A
C389        N390   1.358       .  A
C389        C465   1.465       .  S
Zn391       O395   1.972       .  S
Zn391       O396   2.040   1_556  S
Zn391       O400   2.063       .  S
Zn391       O407   2.063   1_655  S
Zn392       O397   2.010       .  S
Zn392       O399   2.044       .  S
Zn392       O403   2.039   1_655  S
Zn393       O395   1.958       .  S
Zn393       O398   2.003       .  S
Zn393       O401   2.031       .  S
Zn393       O404   2.012       .  S
Zn394       O395   1.964   1_455  S
Zn394       O402   2.003       .  S
Zn394       O406   2.027       .  S
O397        C409   1.271       .  A
O398        C410   1.272       .  A
O399        C408   1.276       .  A
O400        C410   1.279       .  A
O402        C411   1.270   1_455  A
O403        C412   1.276       .  A
O404        C411   1.271       .  A
O405        C412   1.272       .  A
O406        C413   1.273       .  A
O407        C413   1.280       .  A
C408        C494   1.436       .  S
C409        C554   1.476       .  S
C410        C498   1.482       .  S
C411        C495   1.429       .  S
C412        C501   1.471       .  S
C413        C562   1.489       .  S
C414        N415   1.352       .  A
C414        N419   1.357   1_655  A
C414        C496   1.429       .  S
N415        C416   1.352       .  A
C416        N417   1.358   1_655  A
C416        C488   1.433       .  S
N417        C418   1.363       .  A
C418        N419   1.359       .  A
C418        C489   1.478       .  S
C420        N421   1.354       .  A
C420        N425   1.360       .  A
C420        C490   1.476       .  S
N421        C422   1.355       .  A
C422        N423   1.363       .  A
C422        C428   1.468       .  S
N423        C424   1.364       .  A
C424        N425   1.360       .  A
C426        N427   1.362       .  A
C426        N431   1.356       .  A
C426        C483   1.471       .  S
N427        C428   1.361       .  A
C428        N429   1.361       .  A
N429        C430   1.360       .  A
C430        N431   1.352       .  A
C430        C512   1.479   1_545  S
C432        N433   1.358       .  A
C432        N437   1.363       .  A
C432        C479   1.472       .  S
N433        C434   1.358       .  A
C434        N435   1.354       .  A
C434        C516   1.476       .  S
N435        C436   1.357       .  A
C436        N437   1.360       .  A
C436        C463   1.463       .  S
Zn438       O442   1.959   1_455  S
Zn438       O443   2.000       .  S
Zn439       O442   1.959       .  S
Zn439       O444   2.022       .  S
Zn439       O446   2.007   1_655  S
Zn439       O450   2.009       .  S
Zn440       O442   1.958       .  S
Zn440       O448   2.019       .  S
Zn440       O451   2.007       .  S
Zn441       O442   1.952       .  S
Zn441       O452   2.019   1_565  S
O443        C455   1.274       .  A
O444        C456   1.274       .  A
O445        C457   1.272       .  A
O446        C455   1.272       .  A
O447        C457   1.270       .  A
O448        C456   1.272       .  A
O449        C458   1.276   1_545  A
O450        C459   1.270   1_565  A
O452        C459   1.272       .  A
O453        C460   1.273   1_645  A
O454        C460   1.273       .  A
C455        C528   1.468       .  S
C456        C480   1.473       .  S
C457        C477   1.439       .  S
C458        C519   1.473       .  S
C459        C487   1.433       .  S
C460        C484   1.479   1_565  S
C461        N462   1.354       .  A
C461        N466   1.355       .  A
C461        C473   1.474       .  S
N462        C463   1.355       .  A
C463        N464   1.363       .  A
N464        C465   1.364       .  A
C465        N466   1.358       .  A
C467        N468   1.359       .  A
C467        N472   1.355       .  A
C467        C493   1.437       .  S
N468        C469   1.358       .  A
C469        N470   1.357       .  A
C469        C478   1.440       .  S
N470        C471   1.359       .  A
C471        N472   1.359       .  A
C471        C474   1.474       .  S
C473        C474   1.345       .  D
C473        H475   1.086       .  S
C474        H476   1.087       .  S
C477        C478   1.208       .  T
C479        C480   1.340       .  D
C479        H481   1.087       .  S
C480        H482   1.087       .  S
C483        C484   1.344       .  D
C483        H485   1.087   1_545  S
C484        H486   1.086       .  S
C487        C488   1.205       .  T
C489        C490   1.343       .  D
C489        H491   1.086       .  S
C490        H492   1.087       .  S
C493        C494   1.207       .  T
C495        C496   1.202       .  T
C497        C498   1.344       .  D
C497        H499   1.086       .  S
C498        H500   1.087       .  S
C501        C502   1.346       .  D
C501        H503   1.087       .  S
C502        H504   1.086       .  S
C505        C506   1.342       .  D
C505        H507   1.086       .  S
C506        H508   1.086       .  S
C509        C510   1.201       .  T
C511        C512   1.339   1_545  D
C511        H513   1.087       .  S
C512        H514   1.087       .  S
C515        C516   1.340       .  D
C515        H517   1.087       .  S
C516        H518   1.087       .  S
C519        C520   1.340   1_565  D
C519        H521   1.087       .  S
C520        H522   1.086       .  S
C523        C524   1.342       .  D
C523        H525   1.087       .  S
C524        H526   1.087   1_545  S
C527        C528   1.341       .  D
C527        H529   1.087       .  S
C528        H530   1.087       .  S
C531        C532   1.338       .  D
C531        H533   1.087       .  S
C532        H534   1.088       .  S
C535        C536   1.208       .  T
C537        C538   1.343       .  D
C537        H539   1.086       .  S
C538        H540   1.086       .  S
C541        C542   1.207       .  T
C543        C544   1.201       .  T
C545        C546   1.348       .  D
C545        H547   1.087       .  S
C546        H548   1.086       .  S
C549        C550   1.341       .  D
C549        H551   1.087       .  S
C550        H552   1.087       .  S
C553        C554   1.342       .  D
C553        H555   1.087       .  S
C554        H556   1.087       .  S
C557        C558   1.344       .  D
C557        H559   1.086       .  S
C558        H560   1.087       .  S
C561        C562   1.343       .  D
C561        H563   1.087       .  S
C562        H564   1.087       .  S
C565        C566   1.344       .  D
C565        H567   1.087       .  S
C566        H568   1.086       .  S
