geometry optimzed in LAMMPS
_audit_creation_date              2020-11-30 
_audit_creation_method            'lammps2cif' 
_symmetry_space_group_name_H-M    'P1' 
_symmetry_Int_Tables_number       1 
_symmetry_cell_setting            triclinic 
loop_ 
_symmetry_equiv_pos_as_xyz 
  x,y,z 
_cell_length_a                    32.30327726 
_cell_length_b                    32.29878938474906 
_cell_length_c                    32.37263705618515 
_cell_angle_alpha                 89.61157955466413 
_cell_angle_beta                  89.87214629035807 
_cell_angle_gamma                 90.70272233997186 
loop_ 
_atom_site_label 
_atom_site_type_symbol 
_atom_site_fract_x 
_atom_site_fract_y 
_atom_site_fract_z 
_atom_site_charge 
C1          C  0.94829693  0.71005638  0.50525335     0.87900
C2          C  0.94913104  0.73934393  0.46871671    -0.52300
C3          C  0.98233378  0.76538194  0.46694723     0.10900
C4          C  0.01220323  0.76046370  0.50435262     0.21800
C5          C  0.99023305  0.68745633  0.50346571    -0.53000
C6          C  0.02401819  0.71415753  0.50282684     0.11000
C7          C  0.95115725  0.73725777  0.54295541    -0.52600
C8          C  0.98492170  0.76284754  0.54400441     0.11500
H9          H  0.92569632  0.73811420  0.44477872     0.16000
H10         H  0.03914380  0.78216582  0.50398331     0.01800
H11         H  0.99294284  0.65400406  0.50266322     0.16400
H12         H  0.92931878  0.73428353  0.56831421     0.16100
C13         C  0.44602009  0.00951095  0.21428759     0.87900
C14         C  0.44992960  0.04949637  0.23818192    -0.52300
C15         C  0.48365973  0.05174873  0.26298950     0.10900
C16         C  0.51034678  0.01216873  0.26278429     0.21800
C17         C  0.48777531  0.00588707  0.19099045    -0.53000
C18         C  0.52165354  0.00767462  0.21688502     0.11000
C19         C  0.44647129  0.97520552  0.24659809    -0.52600
C20         C  0.48022643  0.97538525  0.27135107     0.11500
H21         H  0.42839989  0.07500084  0.23431893     0.16000
H22         H  0.53737482  0.01347828  0.28389080     0.01800
H23         H  0.49027754  0.00305054  0.15774582     0.16400
H24         H  0.42336916  0.95030654  0.24732304     0.16100
C25         C  0.54742384  0.00685197  0.77954921     0.87900
C26         C  0.54397099  0.04554562  0.75297713    -0.52300
C27         C  0.51136956  0.04521907  0.72654590     0.10900
C28         C  0.48450579  0.00496287  0.72899326     0.21800
C29         C  0.50517276  0.00306566  0.80181430    -0.53000
C30         C  0.47190723  0.00261517  0.77501313     0.11000
C31         C  0.54792143  0.97096050  0.74974305    -0.52600
C32         C  0.51478210  0.96834191  0.72428993     0.11500
H33         H  0.56527238  0.07179237  0.75556563     0.16000
H34         H  0.45796936  0.00426077  0.70726152     0.01800
H35         H  0.50189054  0.00146186  0.83515881     0.16400
H36         H  0.57155758  0.94720413  0.75117806     0.16100
C37         C  0.77951510  0.55151307  0.00514083     0.87900
C38         C  0.75183451  0.54751537  0.04243472    -0.52300
C39         C  0.72875292  0.51234281  0.04415031     0.10900
C40         C  0.73452451  0.48391708  0.00591640     0.21800
C41         C  0.80559463  0.51177598  0.00517896    -0.53000
C42         C  0.78167325  0.47603875  0.00521207     0.11000
C43         C  0.75139404  0.54726869  0.96805062    -0.52600
C44         C  0.72842317  0.51184821  0.96725052     0.11500
H45         H  0.75191437  0.57049410  0.06694108     0.16000
H46         H  0.71511504  0.45531290  0.00631664     0.01800
H47         H  0.83918593  0.51186862  0.00419839     0.16400
H48         H  0.75158419  0.56982344  0.94285643     0.16100
C49         C  0.21736462  0.54786199  0.00296282     0.87900
C50         C  0.24436359  0.54597508  0.96460109    -0.52300
C51         C  0.26920966  0.51235462  0.96243327     0.10900
C52         C  0.26538450  0.48344145  0.00100576     0.21800
C53         C  0.19320507  0.50645066  0.00376203    -0.53000
C54         C  0.21852764  0.47244099  0.00241344     0.11000
C55         C  0.24683230  0.54543718  0.03891702    -0.52600
C56         C  0.27200928  0.51221183  0.03909525     0.11500
H57         H  0.24260671  0.56913626  0.94012376     0.16000
H58         H  0.28591156  0.45613559  0.00029171     0.01800
H59         H  0.15970825  0.50422564  0.00449837     0.16400
H60         H  0.24651125  0.56813752  0.06376891     0.16100
C61         C  0.05494083  0.26985366  0.50583424     0.87900
C62         C  0.05530435  0.23969485  0.47034307    -0.52300
C63         C  0.02182169  0.21400234  0.46861275     0.10900
C64         C  0.99131345  0.21925754  0.50544119     0.21800
C65         C  0.01305766  0.29201062  0.50281748    -0.53000
C66         C  0.97941119  0.26537725  0.50306297     0.11000
C67         C  0.05157415  0.24341821  0.54437607    -0.52600
C68         C  0.01846859  0.21700683  0.54511422     0.11500
H69         H  0.07865527  0.24145254  0.44604647     0.16000
H70         H  0.96443824  0.19748923  0.50535565     0.01800
H71         H  0.01027713  0.32549052  0.50148890     0.16400
H72         H  0.07338527  0.24625049  0.56970312     0.16100
In73       In  0.82818984  0.66895128  0.00315273     1.36900
C74         C  0.79947535  0.59312794  0.00510612     0.79000
O75         O  0.82819436  0.66772919  0.07298526    -0.59400
O76         O  0.78641483  0.70730600  0.04233308    -0.50300
C77         C  0.90840918  0.68011834  0.99396497     0.71700
O78         O  0.88936190  0.64811249  0.98246683    -0.45200
C79         C  0.80260063  0.69918981  0.93095487     0.76400
O80         O  0.83789560  0.59995476  0.00770170    -0.57000
O81         O  0.81022214  0.72222313  0.96139597    -0.47100
O82         O  0.77705085  0.62482874  0.00284196    -0.53500
C83         C  0.79973690  0.69389533  0.07644562     0.86600
O84         O  0.88624847  0.70672395  0.01138535    -0.55400
O85         O  0.80715952  0.66131128  0.93818215    -0.58700
In86       In  0.16301606  0.66255742  0.00120762     1.36900
C87         C  0.19512611  0.58803772  0.00415833     0.79000
O88         O  0.17658331  0.65714675  0.93390124    -0.59400
O89         O  0.19264818  0.71356812  0.96255319    -0.50300
C90         C  0.08410276  0.67620221  0.99062275     0.71700
O91         O  0.09939333  0.64053999  0.98830446    -0.45200
C92         C  0.18100444  0.69065197  0.07652524     0.76400
O93         O  0.15637603  0.59227441  0.00449972    -0.57000
O94         O  0.20546880  0.69361151  0.04623095    -0.47100
O95         O  0.21584615  0.62132220  0.00435448    -0.53500
C96         C  0.19235789  0.69269836  0.92974763     0.86600
O97         O  0.10946951  0.70517935  0.99808676    -0.55400
O98         O  0.14713551  0.67275113  0.06844841    -0.58700
In99       In  0.66080888  0.99787402  0.83843597     1.36900
C100        C  0.58692710  0.00632491  0.80358989     0.79000
O101        O  0.68081854  0.06325337  0.85276551    -0.59400
O102        O  0.68991631  0.04079068  0.79223799    -0.50300
C103        C  0.66155998  0.99464759  0.92007263     0.71700
O104        O  0.62887977  0.99396184  0.89891046    -0.45200
C105        C  0.69397938  0.92658513  0.81197080     0.76400
O106        O  0.59010861  0.99610372  0.84103294    -0.57000
O107        O  0.71507052  0.95935324  0.81567153    -0.47100
O108        O  0.62088070  0.01287585  0.78541578    -0.53500
C109        C  0.69388527  0.07064739  0.81672347     0.86600
O110        O  0.69463615  0.99644421  0.89916237    -0.55400
O111        O  0.65682690  0.93047028  0.82278184    -0.58700
In112      In  0.64470560  0.00569380  0.17918610     1.36900
C113        C  0.56536917  0.00726657  0.20304277     0.79000
O114        O  0.64666980  0.94427090  0.21277298    -0.59400
O115        O  0.69974019  0.96225487  0.17914982    -0.50300
C116        C  0.65135124  0.00157914  0.09771064     0.71700
O117        O  0.62415534  0.98184774  0.11800367    -0.45200
C118        C  0.67783837  0.07796955  0.20396573     0.76400
O119        O  0.57596965  0.00420102  0.16574290    -0.57000
O120        O  0.68703657  0.04346449  0.21980113    -0.47100
O121        O  0.59529275  0.01017150  0.22797206    -0.53500
C122        C  0.68214071  0.93440488  0.20034704     0.86600
O123        O  0.67512678  0.02372452  0.11931376    -0.55400
O124        O  0.64959986  0.07561818  0.17726083    -0.58700
C125        C  0.76041500  0.76189915  0.76241517    -0.01000
C126        C  0.72779743  0.72976638  0.73295620    -0.01000
In127      In  0.00327961  0.81369483  0.65988393     1.36900
C128        C  0.99534370  0.78156847  0.58445996     0.79000
O129        O  0.05599321  0.77016688  0.67092079    -0.59400
O130        O  0.04822847  0.81878505  0.71310829    -0.50300
C131        C  0.00452640  0.89545422  0.65920583     0.71700
O132        O  0.02420160  0.87440609  0.63317556    -0.45200
C133        C  0.92974770  0.79271172  0.69146038     0.76400
O134        O  0.01949160  0.81202564  0.59028453    -0.57000
O135        O  0.96323867  0.77971214  0.70663285    -0.47100
O136        O  0.97863949  0.76750606  0.61689605    -0.53500
C137        C  0.06920899  0.78803933  0.70281952     0.86600
O138        O  0.98454703  0.87435535  0.68542623    -0.55400
O139        O  0.93436552  0.81623769  0.66053180    -0.58700
In140      In  0.00323432  0.15513457  0.65644649     1.36900
C141        C  0.01020475  0.19403359  0.58389630     0.79000
O142        O  0.93573418  0.17082073  0.65341016    -0.59400
O143        O  0.96456034  0.17516453  0.71153059    -0.50300
C144        C  0.00188703  0.07358618  0.65671254     0.71700
O145        O  0.01178139  0.09466235  0.62521525    -0.45200
C146        C  0.07711342  0.17403063  0.69044740     0.76400
O147        O  0.98732509  0.16232425  0.58752326    -0.57000
O148        O  0.04629525  0.19777425  0.69100762    -0.47100
O149        O  0.02742620  0.20523751  0.61687930    -0.53500
C150        C  0.93155467  0.17877573  0.69118381     0.86600
O151        O  0.99208972  0.09457604  0.68784208    -0.55400
O152        O  0.06969557  0.13959637  0.67369832    -0.58700
C153        C  0.23347153  0.23948189  0.23106757    -0.01000
C154        C  0.26469630  0.27083657  0.26217660    -0.01000
In155      In  0.50030064  0.85438369  0.66797743     1.36900
C156        C  0.50692779  0.92825596  0.70377522     0.79000
O157        O  0.43465764  0.85458941  0.69097602    -0.59400
O158        O  0.46344257  0.79664953  0.68323817    -0.50300
C159        C  0.49731481  0.85866526  0.58585833     0.71700
O160        O  0.51427537  0.88618508  0.60751214    -0.45200
C161        C  0.56934135  0.81443259  0.68961866     0.76400
O162        O  0.48095920  0.92212287  0.67545533    -0.57000
O163        O  0.53628898  0.81191628  0.71032339    -0.47100
O164        O  0.52689592  0.89658431  0.71419599    -0.53500
C165        C  0.43111485  0.81567899  0.69292722     0.86600
O166        O  0.48242864  0.82879329  0.60637501    -0.55400
O167        O  0.56688810  0.83711921  0.65782993    -0.58700
In168      In  0.49653703  0.86067254  0.32632151     1.36900
C169        C  0.48884102  0.93703232  0.29449938     0.79000
O170        O  0.56459860  0.84932108  0.33377180    -0.59400
O171        O  0.53263163  0.81165361  0.29121761    -0.50300
C172        C  0.49700113  0.86246506  0.40785429     0.71700
O173        O  0.50166693  0.89481348  0.38623190    -0.45200
C174        C  0.42558765  0.82129327  0.30570901     0.76400
O175        O  0.52237324  0.91767619  0.29217247    -0.57000
O176        O  0.45166832  0.83370587  0.27892894    -0.47100
O177        O  0.46057821  0.91796266  0.31371997    -0.53500
C178        C  0.56655717  0.81958465  0.30898067     0.86600
O179        O  0.49296336  0.82962367  0.38744329    -0.55400
O180        O  0.43665471  0.82826531  0.34228760    -0.58700
C181        C  0.22735102  0.76933806  0.23661650    -0.01000
C182        C  0.26133798  0.73977452  0.26658262    -0.01000
In183      In  0.99181227  0.82778082  0.35479161     1.36900
C184        C  0.98871811  0.78857375  0.42778376     0.79000
O185        O  0.92203072  0.83205261  0.34764773    -0.59400
O186        O  0.95439121  0.79917850  0.30207357    -0.50300
C187        C  0.98659555  0.90897590  0.35744526     0.71700
O188        O  0.98970067  0.88721305  0.38983998    -0.45200
C189        C  0.06566377  0.81015747  0.31982358     0.76400
O190        O  0.01215993  0.81963306  0.42273699    -0.57000
O191        O  0.03813878  0.78309499  0.32736398    -0.47100
O192        O  0.96915088  0.77812874  0.39585769    -0.53500
C193        C  0.91962878  0.81174031  0.31461373     0.86600
O194        O  0.98553114  0.88869658  0.32429350    -0.55400
O195        O  0.05513635  0.84605362  0.32976456    -0.58700
In196      In  0.00438073  0.16872217  0.35107243     1.36900
C197        C  0.01384341  0.19379316  0.42867222     0.79000
O198        O  0.06996024  0.16485050  0.33032733    -0.59400
O199        O  0.03855561  0.22000958  0.31511205    -0.50300
C200        C  0.99687171  0.08692428  0.35573881     0.71700
O201        O  0.98673370  0.11001505  0.38508173    -0.45200
C202        C  0.93766750  0.19200707  0.30948330     0.76400
O203        O  0.97830609  0.18800652  0.41358086    -0.57000
O204        O  0.96118555  0.16404057  0.29674707    -0.47100
O205        O  0.04330954  0.18543598  0.40464341    -0.53500
C206        C  0.07186696  0.20004570  0.31335100     0.86600
O207        O  0.01109669  0.10582964  0.32462063    -0.55400
O208        O  0.94924139  0.20906761  0.34250757    -0.58700
In209      In  0.32749157  0.50459573  0.15370274     1.36900
C210        C  0.29745244  0.50657594  0.07670469     0.79000
O211        O  0.33457278  0.45542170  0.20285645    -0.59400
O212        O  0.27758367  0.45810331  0.17136319    -0.50300
C213        C  0.40898997  0.49600393  0.15210461     0.71700
O214        O  0.38717127  0.49328130  0.11991550    -0.45200
C215        C  0.30711368  0.57750642  0.18843228     0.76400
O216        O  0.30428976  0.47240973  0.09439311    -0.57000
O217        O  0.28318121  0.54633194  0.18828561    -0.47100
O218        O  0.30909192  0.53776696  0.09700465    -0.53500
C219        C  0.29913598  0.43969770  0.19808072     0.86600
O220        O  0.38876845  0.50235162  0.18465359    -0.55400
O221        O  0.34128391  0.57124319  0.17105001    -0.58700
In222      In  0.66951153  0.49768216  0.15619264     1.36900
C223        C  0.70736856  0.50335377  0.08353957     0.79000
O224        O  0.65924139  0.56632221  0.16600488    -0.59400
O225        O  0.70951705  0.53896145  0.19684961    -0.50300
C226        C  0.58750086  0.49350396  0.15388984     0.71700
O227        O  0.60938973  0.49775826  0.12187785    -0.45200
C228        C  0.69367944  0.42728310  0.19252626     0.76400
O229        O  0.67477117  0.48180710  0.08748059    -0.57000
O230        O  0.69762834  0.43440317  0.15449766    -0.47100
O231        O  0.72035092  0.51955304  0.11653348    -0.53500
C232        C  0.68940810  0.57161925  0.19016718     0.86600
O233        O  0.60788042  0.49115549  0.18688743    -0.55400
O234        O  0.67747902  0.45635939  0.21224380    -0.58700
C235        C  0.75427098  0.76841690  0.23788538    -0.01000
C236        C  0.72557217  0.73539766  0.27134505    -0.01000
In237      In  0.83054839  0.35736588  0.99699576     1.36900
C238        C  0.79896333  0.43387598  0.00248760     0.79000
O239        O  0.84579014  0.33735339  0.93123485    -0.59400
O240        O  0.78465805  0.32855772  0.95181280    -0.50300
C241        C  0.91270984  0.35707003  0.99771957     0.71700
O242        O  0.89220296  0.38534664  0.98053510    -0.45200
C243        C  0.81324941  0.31593731  0.06844920     0.76400
O244        O  0.83709687  0.42686698  0.00395201    -0.57000
O245        O  0.80842541  0.30014456  0.03318057    -0.47100
O246        O  0.77678206  0.40183257  0.99811925    -0.53500
C247        C  0.81008468  0.32425823  0.92255651     0.86600
O248        O  0.89088970  0.32844104  0.01364160    -0.55400
O249        O  0.82556583  0.35310055  0.06696247    -0.58700
In250      In  0.17301315  0.35103740  0.99891532     1.36900
C251        C  0.20238803  0.42931921  0.00108398     0.79000
O252        O  0.20882726  0.34467322  0.05808567    -0.59400
O253        O  0.17516523  0.29230165  0.03770022    -0.50300
C254        C  0.09154702  0.35761089  0.00329296     0.71700
O255        O  0.11310563  0.37537341  0.97564603    -0.45200
C256        C  0.19089826  0.31157580  0.92791199     0.76400
O257        O  0.16653944  0.41924670  0.01303342    -0.57000
O258        O  0.21785365  0.32370886  0.95327483    -0.47100
O259        O  0.22329480  0.39949143  0.98782532    -0.53500
C260        C  0.19846306  0.30754276  0.06491331     0.86600
O261        O  0.11213410  0.33757070  0.02968294    -0.55400
O262        O  0.15463496  0.31983370  0.93881611    -0.58700
In263      In  0.83426457  0.65061436  0.50012721     1.36900
C264        C  0.90814462  0.68637827  0.50516499     0.79000
O265        O  0.77919809  0.65596480  0.45700129    -0.59400
O266        O  0.83690001  0.67989161  0.43707440    -0.50300
C267        C  0.83453547  0.56891161  0.49423557     0.71700
O268        O  0.86092984  0.59202116  0.47673258    -0.45200
C269        C  0.80138632  0.67668249  0.57144571     0.76400
O270        O  0.90451819  0.64745762  0.50516704    -0.57000
O271        O  0.78696181  0.68624193  0.53653901    -0.47100
O272        O  0.87442977  0.70571798  0.50389021    -0.53500
C273        C  0.79928341  0.67418043  0.42869768     0.86600
O274        O  0.80760283  0.58789562  0.51467397    -0.55400
O275        O  0.83243735  0.65344758  0.56969189    -0.58700
In276      In  0.85889528  0.31044651  0.50226102     1.36900
C277        C  0.93608649  0.28019274  0.50289927     0.79000
O278        O  0.85343921  0.32045819  0.57123986    -0.59400
O279        O  0.81577058  0.27401532  0.54441742    -0.50300
C280        C  0.84836187  0.39156511  0.49833764     0.71700
O281        O  0.88320771  0.37484375  0.49553217    -0.45200
C282        C  0.82332209  0.29411171  0.42872587     0.76400
O283        O  0.92788930  0.31805855  0.50415745    -0.57000
O284        O  0.80844401  0.28120587  0.46252853    -0.47100
O285        O  0.90445958  0.25674801  0.50187048    -0.53500
C286        C  0.82462611  0.29430177  0.57646476     0.86600
O287        O  0.81859062  0.36659773  0.50394061    -0.55400
O288        O  0.85742164  0.31284973  0.43267260    -0.58700
C289        C  0.77597525  0.23377629  0.23257427    -0.01000
C290        C  0.74548548  0.26686510  0.26321559    -0.01000
In291      In  0.50365368  0.16469260  0.31759426     1.36900
C292        C  0.49441598  0.09165475  0.28189341     0.79000
O293        O  0.43523970  0.17282270  0.32333165    -0.59400
O294        O  0.46627602  0.20991620  0.27873418    -0.50300
C295        C  0.50333441  0.16477318  0.40017346     0.71700
O296        O  0.49423046  0.13370402  0.37877709    -0.45200
C297        C  0.57727986  0.19411762  0.29246744     0.76400
O298        O  0.51534637  0.09553678  0.31438251    -0.57000
O299        O  0.54574122  0.21657665  0.29466323    -0.47100
O300        O  0.48135562  0.12510986  0.26680396    -0.53500
C301        C  0.43209445  0.19953430  0.29496702     0.86600
O302        O  0.51232880  0.19664981  0.37911439    -0.55400
O303        O  0.57074694  0.15683613  0.30223527    -0.58700
In304      In  0.49887401  0.15507998  0.66175486     1.36900
C305        C  0.50246605  0.08339958  0.70309500     0.79000
O306        O  0.56879880  0.15986802  0.65997197    -0.59400
O307        O  0.53715616  0.19759935  0.70240200    -0.50300
C308        C  0.50212335  0.15823062  0.57926808     0.71700
O309        O  0.49766794  0.12494042  0.59938906    -0.45200
C310        C  0.42469706  0.18934647  0.67686379     0.76400
O311        O  0.49522547  0.08447877  0.66486945    -0.57000
O312        O  0.45766956  0.21033595  0.67385001    -0.47100
O313        O  0.50545501  0.11845776  0.71985470    -0.53500
C314        C  0.57166089  0.18679301  0.68792852     0.86600
O315        O  0.50541515  0.18988375  0.60158081    -0.55400
O316        O  0.42999967  0.15106181  0.67259938    -0.58700
C317        C  0.76959027  0.23254478  0.76525855    -0.01000
C318        C  0.73591510  0.26353447  0.73505413    -0.01000
In319      In  0.34983865  0.99646299  0.81618299     1.36900
C320        C  0.42809939  0.00081877  0.78891806     0.79000
O321        O  0.33970113  0.92914318  0.81922456    -0.59400
O322        O  0.31108547  0.96000300  0.76933684    -0.50300
C323        C  0.34303964  0.98950716  0.89722358     0.71700
O324        O  0.37584912  0.98140672  0.87805785    -0.45200
C325        C  0.31484894  0.07067318  0.80973145     0.76400
O326        O  0.41832954  0.00125411  0.82656165    -0.57000
O327        O  0.29387152  0.03758119  0.81007841    -0.47100
O328        O  0.39753715  0.99891668  0.76447940    -0.53500
C329        C  0.31655196  0.92620591  0.78824974     0.86600
O330        O  0.31335703  0.99995257  0.87451235    -0.55400
O331        O  0.35341528  0.06529412  0.80985722    -0.58700
In332      In  0.33260442  0.00348720  0.15554711     1.36900
C333        C  0.40618280  0.00805062  0.19093187     0.79000
O334        O  0.33118053  0.07243394  0.15872864    -0.59400
O335        O  0.28212005  0.03965535  0.18780363    -0.50300
C336        C  0.33634274  0.99832776  0.07441196     0.71700
O337        O  0.36243290  0.98139662  0.09776769    -0.45200
C338        C  0.29724554  0.93183007  0.17842645     0.76400
O339        O  0.40297836  0.00425389  0.15231500    -0.57000
O340        O  0.28366662  0.95306114  0.14880635    -0.47100
O341        O  0.37227889  0.01005109  0.21017397    -0.53500
C342        C  0.29858449  0.07447097  0.18001760     0.86600
O343        O  0.30891571  0.01867437  0.09287468    -0.55400
O344        O  0.32814466  0.94756079  0.19610489    -0.58700
In345      In  0.67076281  0.49394950  0.85506529     1.36900
C346        C  0.70830322  0.50094966  0.92786002     0.79000
O347        O  0.66546424  0.42437247  0.84709427    -0.59400
O348        O  0.71408601  0.45572546  0.81612215    -0.50300
C349        C  0.58879762  0.50033369  0.85129552     0.71700
O350        O  0.60850386  0.50107563  0.88479863    -0.45200
C351        C  0.68865330  0.56633837  0.81670926     0.76400
O352        O  0.67706305  0.47761369  0.92404284    -0.57000
O353        O  0.69398240  0.53152105  0.80003608    -0.47100
O354        O  0.72104001  0.51696030  0.89456931    -0.53500
C355        C  0.69570600  0.42167535  0.82268131     0.86600
O356        O  0.61113622  0.49543984  0.81981916    -0.55400
O357        O  0.67406741  0.56379500  0.85283287    -0.58700
In358      In  0.32872130  0.49710817  0.84880340     1.36900
C359        C  0.29187505  0.50510179  0.92321548     0.79000
O360        O  0.33661428  0.56337519  0.83050176    -0.59400
O361        O  0.29008749  0.53008376  0.79873174    -0.50300
C362        C  0.41036444  0.50445954  0.84727168     0.71700
O363        O  0.38930922  0.50776770  0.87997812    -0.45200
C364        C  0.31117087  0.42119350  0.82021158     0.76400
O365        O  0.31521776  0.47513528  0.91590280    -0.57000
O366        O  0.28594506  0.45075895  0.81881168    -0.47100
O367        O  0.28799014  0.52938895  0.89308172    -0.53500
C368        C  0.30769999  0.56478775  0.80450794     0.86600
O369        O  0.38924246  0.49790366  0.81515729    -0.55400
O370        O  0.34551282  0.43073743  0.83585793    -0.58700
C371        C  0.23717493  0.22890534  0.76928741    -0.01000
C372        C  0.26741372  0.26129218  0.73779444    -0.01000
In373      In  0.16543981  0.33528314  0.50242975     1.36900
C374        C  0.09380630  0.29517478  0.50562021     0.79000
O375        O  0.16060251  0.32269073  0.43454627    -0.59400
O376        O  0.21961232  0.31713747  0.46175058    -0.50300
C377        C  0.16360181  0.41695473  0.50221372     0.71700
O378        O  0.13268120  0.39441704  0.51102012    -0.45200
C379        C  0.19739890  0.31460197  0.57571644     0.76400
O380        O  0.09552351  0.33349546  0.49840692    -0.57000
O381        O  0.19981800  0.29189290  0.54436093    -0.47100
O382        O  0.12826772  0.27827123  0.51133204    -0.53500
C383        C  0.19814385  0.31396276  0.42938444     0.86600
O384        O  0.19590123  0.39739708  0.49271377    -0.55400
O385        O  0.17997994  0.34859897  0.56918176    -0.58700
In386      In  0.14775531  0.67662253  0.50062689     1.36900
C387        C  0.06782713  0.70048558  0.50140210     0.79000
O388        O  0.20666570  0.67452434  0.53959534    -0.59400
O389        O  0.15908411  0.71393991  0.55829543    -0.50300
C390        C  0.15351917  0.59512267  0.50445395     0.71700
O391        O  0.13009447  0.61498459  0.52839472    -0.45200
C392        C  0.17820798  0.69903621  0.42700895     0.76400
O393        O  0.07845923  0.66325859  0.50506110    -0.57000
O394        O  0.18351504  0.72051206  0.45901171    -0.47100
O395        O  0.09788296  0.72537627  0.49682034    -0.53500
C396        C  0.19471659  0.70041314  0.56565778     0.86600
O397        O  0.17392291  0.61730219  0.47938428    -0.55400
O398        O  0.15510530  0.66781280  0.43216584    -0.58700
C399        C  0.23806333  0.75969026  0.76329290    -0.01000
C400        C  0.26924585  0.73149194  0.72971138    -0.01000
C401        C  0.22466855  0.75581145  0.66357612     0.25000
C402        C  0.25376951  0.72877299  0.68263410    -0.23100
C403        C  0.27328041  0.70169640  0.65396620     0.19900
C404        C  0.25507096  0.69256426  0.61541401     0.25000
C405        C  0.21928556  0.71326546  0.60241336    -0.23000
C406        C  0.20651863  0.74701233  0.62557572     0.19900
F407        F  0.17612594  0.77214627  0.61150335    -0.13000
F408        F  0.21232716  0.79121267  0.68070683    -0.15300
F409        F  0.27179956  0.66259339  0.59165453    -0.15300
F410        F  0.30818630  0.68120145  0.66438153    -0.13000
C411        C  0.18936309  0.53015837  0.48392005     0.25000
C412        C  0.15674862  0.54959649  0.50496268    -0.23100
C413        C  0.12677470  0.52504612  0.52534244     0.19900
C414        C  0.12918670  0.48195361  0.52452438     0.25000
C415        C  0.16173440  0.46252204  0.50343971    -0.23000
C416        C  0.19195448  0.48704336  0.48339137     0.19900
F417        F  0.22357656  0.46938059  0.46246550    -0.13000
F418        F  0.21888014  0.55279717  0.46373297    -0.15300
F419        F  0.09965980  0.45930353  0.54467806    -0.15300
F420        F  0.09448005  0.54260871  0.54529446    -0.13000
C421        C  0.23182743  0.24814494  0.66535985     0.25000
C422        C  0.24522922  0.27703143  0.69625085    -0.23100
C423        C  0.24431629  0.31967049  0.68282149     0.19900
C424        C  0.22678541  0.33158251  0.64506258     0.25000
C425        C  0.21311505  0.30212477  0.61674544    -0.23000
C426        C  0.21600858  0.26043274  0.62721022     0.19900
F427        F  0.20360079  0.23080959  0.60014637    -0.13000
F428        F  0.23490635  0.20696553  0.67021629    -0.15300
F429        F  0.22657553  0.37241905  0.63472421    -0.15300
F430        F  0.26471583  0.35069706  0.70227250    -0.13000
C431        C  0.27219553  0.60784843  0.74845560     0.25000
C432        C  0.29531811  0.60489138  0.78492849    -0.23100
C433        C  0.30661762  0.64163698  0.80434973     0.19900
C434        C  0.29770511  0.68004811  0.78707982     0.25000
C435        C  0.27602460  0.68545400  0.74894308    -0.23000
C436        C  0.26193232  0.64685762  0.73116362     0.19900
F437        F  0.23659274  0.64507462  0.69804871    -0.13000
F438        F  0.25930552  0.57283258  0.72915610    -0.15300
F439        F  0.31301803  0.71176407  0.80844190    -0.15300
F440        F  0.32681640  0.64093374  0.84115229    -0.13000
C441        C  0.26039503  0.36802402  0.79663464     0.25000
C442        C  0.30126456  0.37911252  0.80445365    -0.23100
C443        C  0.33194602  0.34984451  0.79667040     0.19900
C444        C  0.32219652  0.31165664  0.77804012     0.25000
C445        C  0.28081812  0.30136621  0.76474931    -0.23000
C446        C  0.25045720  0.33063154  0.77774123     0.19900
F447        F  0.21021740  0.32562825  0.76994921    -0.13000
F448        F  0.22917281  0.39397708  0.80660125    -0.15300
F449        F  0.35433912  0.28555795  0.77446125    -0.15300
F450        F  0.37198885  0.35819062  0.80665599    -0.13000
C451        C  0.52187549  0.49433450  0.81276651     0.25000
C452        C  0.54333802  0.50446812  0.84916888    -0.23100
C453        C  0.52081956  0.51797108  0.88371228     0.19900
C454        C  0.47766350  0.51950615  0.88247145     0.25000
C455        C  0.45606366  0.50691622  0.84693140    -0.23000
C456        C  0.47865370  0.49506930  0.81178970     0.19900
F457        F  0.45903709  0.48292773  0.77676435    -0.13000
F458        F  0.54257652  0.48258630  0.77831303    -0.15300
F459        F  0.45706847  0.53314750  0.91626973    -0.15300
F460        F  0.54046845  0.52988650  0.91879225    -0.13000
C461        C  0.37394227  0.97552095  0.96642835     0.25000
C462        C  0.34013449  0.98852982  0.94253803    -0.23100
C463        C  0.30448572  0.00314256  0.96241855     0.19900
C464        C  0.30330716  0.00627812  0.00528571     0.25000
C465        C  0.33751281  0.99432904  0.02916065    -0.23000
C466        C  0.37262022  0.97833033  0.00936319     0.19900
F467        F  0.40621163  0.96635461  0.03135455    -0.13000
F468        F  0.40866233  0.96067902  0.94832884    -0.15300
F469        F  0.26858240  0.02116225  0.02330442    -0.15300
F470        F  0.27094911  0.01535322  0.94045427    -0.13000
C471        C  0.25421601  0.11898311  0.81725703     0.25000
C472        C  0.29627784  0.11235353  0.80876797    -0.23100
C473        C  0.32129593  0.14685890  0.80040619     0.19900
C474        C  0.30377942  0.18528553  0.79294626     0.25000
C475        C  0.26008217  0.19001456  0.78926042    -0.23000
C476        C  0.23689206  0.15815414  0.81007681     0.19900
F477        F  0.19626386  0.16305310  0.81932535    -0.13000
F478        F  0.22967884  0.08767918  0.83176408    -0.15300
F479        F  0.33108097  0.21655217  0.78822361    -0.15300
F480        F  0.36312905  0.14359001  0.79814254    -0.13000
C481        C  0.26041030  0.88232585  0.75505848     0.25000
C482        C  0.29751574  0.88590632  0.77700964    -0.23100
C483        C  0.31528529  0.85008192  0.79243247     0.19900
C484        C  0.29664401  0.81172486  0.78697836     0.25000
C485        C  0.25768945  0.80579976  0.76681488    -0.23000
C486        C  0.24025579  0.84356003  0.75060766     0.19900
F487        F  0.20420380  0.84488511  0.72961320    -0.13000
F488        F  0.24268930  0.91664513  0.73874992    -0.15300
F489        F  0.31684555  0.78085196  0.80507640    -0.15300
F490        F  0.35120455  0.85178091  0.81422968    -0.13000
C491        C  0.73458045  0.34744267  0.74126363     0.25000
C492        C  0.72550764  0.30676796  0.75788400    -0.23100
C493        C  0.69978623  0.30771364  0.79388339     0.19900
C494        C  0.69277254  0.34401996  0.81631121     0.25000
C495        C  0.70732751  0.38243079  0.80188448    -0.23000
C496        C  0.72779500  0.38364791  0.76381854     0.19900
F497        F  0.73744538  0.42067005  0.74583383    -0.13000
F498        F  0.74356794  0.35453280  0.70091742    -0.15300
F499        F  0.66935925  0.34158264  0.85114877    -0.15300
F500        F  0.67536566  0.27485808  0.80401682    -0.13000
C501        C  0.37731021  0.25050422  0.68618790     0.25000
C502        C  0.38344654  0.20758628  0.68565544    -0.23100
C503        C  0.34914820  0.18185425  0.69325504     0.19900
C504        C  0.31169041  0.19814799  0.70701756     0.25000
C505        C  0.30711660  0.24115929  0.71607952    -0.23000
C506        C  0.33885595  0.26677303  0.69800522     0.19900
F507        F  0.33421457  0.30826896  0.69414416    -0.13000
F508        F  0.40850355  0.27702488  0.67545264    -0.15300
F509        F  0.28125200  0.17007041  0.71295250    -0.15300
F510        F  0.35176595  0.14022066  0.68836010    -0.13000
C511        C  0.61419038  0.24482979  0.71779168     0.25000
C512        C  0.61200639  0.20482915  0.70182635    -0.23100
C513        C  0.64924847  0.18494318  0.69371864     0.19900
C514        C  0.68743330  0.20439789  0.70187936     0.25000
C515        C  0.69137260  0.24221092  0.72416377    -0.23000
C516        C  0.65254229  0.26399128  0.72609823     0.19900
F517        F  0.65061316  0.30572243  0.72967847    -0.13000
F518        F  0.57926228  0.26760200  0.72101368    -0.15300
F519        F  0.71831714  0.19123935  0.67791757    -0.15300
F520        F  0.64912891  0.14815094  0.67362755    -0.13000
C521        C  0.49572269  0.12567792  0.46703079     0.25000
C522        C  0.50342915  0.16334679  0.44597461    -0.23100
C523        C  0.51126031  0.19924838  0.46918354     0.19900
C524        C  0.51072375  0.19767558  0.51241996     0.25000
C525        C  0.50306390  0.15998885  0.53344887    -0.23000
C526        C  0.49585501  0.12397553  0.51017234     0.19900
F527        F  0.48861874  0.08689853  0.52903695    -0.13000
F528        F  0.48812568  0.09016058  0.44598373    -0.15300
F529        F  0.51779612  0.23319220  0.53359173    -0.15300
F530        F  0.51932519  0.23605553  0.45013655    -0.13000
C531        C  0.69321566  0.20901769  0.29204067     0.25000
C532        C  0.70012854  0.24590140  0.26808805    -0.23100
C533        C  0.66399209  0.26056613  0.24679970     0.19900
C534        C  0.62439060  0.24383515  0.25451308     0.25000
C535        C  0.61893728  0.21023617  0.28145550    -0.23000
C536        C  0.65385100  0.19200463  0.29859371     0.19900
F537        F  0.64995848  0.15816536  0.32353610    -0.13000
F538        F  0.72404984  0.18935844  0.31131625    -0.15300
F539        F  0.59145328  0.25934369  0.23379848    -0.15300
F540        F  0.66656033  0.28874686  0.21554018    -0.13000
C541        C  0.76145706  0.27457756  0.38518358     0.25000
C542        C  0.80239956  0.28895673  0.38797869    -0.23100
C543        C  0.82233698  0.30122634  0.35142135     0.19900
C544        C  0.80339402  0.29582920  0.31292233     0.25000
C545        C  0.76368462  0.27673839  0.30829270    -0.23000
C546        C  0.74173213  0.27055425  0.34672367     0.19900
F547        F  0.70041237  0.26340098  0.34898031    -0.13000
F548        F  0.73941102  0.26586714  0.42001687    -0.15300
F549        F  0.82672636  0.30602935  0.28015733    -0.15300
F550        F  0.86126133  0.31756858  0.35242599    -0.13000
C551        C  0.79703677  0.29569560  0.69099969     0.25000
C552        C  0.75687055  0.27691677  0.69230641    -0.23100
C553        C  0.73710517  0.27372267  0.65276725     0.19900
C554        C  0.75974122  0.27750561  0.61587923     0.25000
C555        C  0.80157459  0.28943629  0.61610748    -0.23000
C556        C  0.81918508  0.30103622  0.65389537     0.19900
F557        F  0.85806724  0.31740253  0.65521298    -0.13000
F558        F  0.81393731  0.31158244  0.72539017    -0.15300
F559        F  0.73975854  0.27158162  0.57948462    -0.15300
F560        F  0.69558509  0.26940651  0.64839284    -0.13000
C561        C  0.87045892  0.50403018  0.47420814     0.25000
C562        C  0.83604787  0.52338839  0.49207841    -0.23100
C563        C  0.80430097  0.49877534  0.50971031     0.19900
C564        C  0.80784393  0.45573973  0.51115543     0.25000
C565        C  0.84321862  0.43665608  0.49507970    -0.23000
C566        C  0.87417156  0.46113929  0.47606333     0.19900
F567        F  0.90822037  0.44361318  0.45920116    -0.13000
F568        F  0.90115127  0.52652761  0.45567588    -0.15300
F569        F  0.77733724  0.43296130  0.52962785    -0.15300
F570        F  0.77002939  0.51628544  0.52609956    -0.13000
C571        C  0.24232377  0.28290276  0.87841003     0.25000
C572        C  0.20114256  0.28978515  0.88882864    -0.23100
C573        C  0.17038408  0.27387764  0.86260231     0.19900
C574        C  0.18069628  0.25318473  0.82586355     0.25000
C575        C  0.22274072  0.25031024  0.81171189    -0.23000
C576        C  0.25279104  0.26306096  0.84181675     0.19900
F577        F  0.29349855  0.25637040  0.83710333    -0.13000
F578        F  0.27335514  0.29472768  0.90420228    -0.15300
F579        F  0.14899373  0.23230263  0.80801082    -0.15300
F580        F  0.12986928  0.27618551  0.87354757    -0.13000
C581        C  0.98167372  0.38695821  0.97648059     0.25000
C582        C  0.95847198  0.35767415  0.99951783    -0.23100
C583        C  0.97945405  0.32936207  0.02495561     0.19900
C584        C  0.02264815  0.32998223  0.02697347     0.25000
C585        C  0.04583486  0.35897633  0.00363814    -0.23000
C586        C  0.02487248  0.38776803  0.97875394     0.19900
F587        F  0.04613758  0.41687274  0.95656065    -0.13000
F588        F  0.96272582  0.41454055  0.95119442    -0.15300
F589        F  0.04169626  0.30142063  0.05105797    -0.15300
F590        F  0.95824823  0.30093136  0.04803685    -0.13000
C591        C  0.78224693  0.25656049  0.11028013     0.25000
C592        C  0.80615918  0.29292233  0.10827447    -0.23100
C593        C  0.82757595  0.30419351  0.14407691     0.19900
C594        C  0.82104375  0.28276568  0.18162629     0.25000
C595        C  0.78846528  0.25272345  0.18717923    -0.23000
C596        C  0.77638814  0.23522968  0.14804367     0.19900
F597        F  0.76645989  0.19460175  0.14388258    -0.13000
F598        F  0.76713012  0.23949157  0.07509528    -0.15300
F599        F  0.84897451  0.29066258  0.21166471    -0.15300
F600        F  0.85719714  0.33437040  0.14237399    -0.13000
C601        C  0.82655758  0.30524574  0.84834343     0.25000
C602        C  0.79933797  0.30431902  0.88219756    -0.23100
C603        C  0.76248364  0.28188505  0.87807780     0.19900
C604        C  0.75342262  0.25980086  0.84206809     0.25000
C605        C  0.78055078  0.25901766  0.80663608    -0.23000
C606        C  0.81778623  0.28331055  0.81173936     0.19900
F607        F  0.84842071  0.28430468  0.78321109    -0.13000
F608        F  0.86266239  0.32708223  0.85066751    -0.15300
F609        F  0.71852650  0.23629491  0.84458862    -0.15300
F610        F  0.73522603  0.27944673  0.91005005    -0.13000
C611        C  0.80007383  0.72084355  0.36697915     0.25000
C612        C  0.78046748  0.68918135  0.38960528    -0.23100
C613        C  0.74100381  0.67607607  0.37703620     0.19900
C614        C  0.72302908  0.69258374  0.34109436     0.25000
C615        C  0.74393264  0.72332170  0.31599664    -0.23000
C616        C  0.77871975  0.74142770  0.33570501     0.19900
F617        F  0.77784092  0.78189206  0.34422313    -0.13000
F618        F  0.83508778  0.73908381  0.38184051    -0.15300
F619        F  0.68606850  0.67609592  0.32978098    -0.15300
F620        F  0.72013107  0.64631637  0.39872717    -0.13000
C621        C  0.75889244  0.33485653  0.21657365     0.25000
C622        C  0.73717563  0.31329237  0.24792893    -0.23100
C623        C  0.70701486  0.33831965  0.26842654     0.19900
C624        C  0.69292993  0.37537718  0.25077242     0.25000
C625        C  0.70791618  0.38853365  0.21214553    -0.23000
C626        C  0.74014166  0.36643536  0.19415978     0.19900
F627        F  0.76049817  0.38224942  0.16073345    -0.13000
F628        F  0.79875501  0.34484003  0.22393704    -0.15300
F629        F  0.66330129  0.39715355  0.27063687    -0.15300
F630        F  0.68821138  0.32570535  0.30378963    -0.13000
C631        C  0.72800545  0.61542998  0.24200977     0.25000
C632        C  0.70013263  0.61258125  0.20906883    -0.23100
C633        C  0.68318834  0.64940980  0.19391841     0.19900
C634        C  0.69198806  0.68772584  0.21256120     0.25000
C635        C  0.71794178  0.69156242  0.24816938    -0.23000
C636        C  0.73805773  0.65372908  0.25995069     0.19900
F637        F  0.77033770  0.65315355  0.28672355    -0.13000
F638        F  0.74627195  0.58084707  0.25709207    -0.15300
F639        F  0.67314851  0.72081654  0.19595954    -0.15300
F640        F  0.65773053  0.64863838  0.16059265    -0.13000
C641        C  0.52031166  0.49656755  0.11550074     0.25000
C642        C  0.54181510  0.49207955  0.15301795    -0.23100
C643        C  0.51915978  0.48724969  0.18995021     0.19900
C644        C  0.47599685  0.48750795  0.18944902     0.25000
C645        C  0.45451707  0.49294810  0.15205718    -0.23000
C646        C  0.47708601  0.49718355  0.11506917     0.19900
F647        F  0.45744993  0.50327086  0.07853328    -0.13000
F648        F  0.54100023  0.50115678  0.07917088    -0.15300
F649        F  0.45531490  0.48249018  0.22575106    -0.15300
F650        F  0.53864681  0.48270514  0.22681184    -0.13000
C651        C  0.89294044  0.20054471  0.24652292     0.25000
C652        C  0.89813757  0.20197316  0.28936084    -0.23100
C653        C  0.86341791  0.20718199  0.31403133     0.19900
C654        C  0.82462739  0.21244539  0.29638573     0.25000
C655        C  0.81916577  0.22073327  0.25332171    -0.23000
C656        C  0.85406062  0.20833237  0.22878470     0.19900
F657        F  0.85075000  0.20133120  0.18764663    -0.13000
F658        F  0.92536673  0.19112463  0.22168214    -0.15300
F659        F  0.79301924  0.20442607  0.32214212    -0.15300
F660        F  0.86613672  0.20289572  0.35574382    -0.13000
C661        C  0.98488213  0.97666920  0.39503536     0.25000
C662        C  0.98588851  0.95457904  0.35769668    -0.23100
C663        C  0.98839154  0.97656347  0.32010556     0.19900
C664        C  0.99162260  0.01949621  0.31980679     0.25000
C665        C  0.99208936  0.04158233  0.35699714    -0.23000
C666        C  0.98806327  0.01991281  0.39469382     0.19900
F667        F  0.98843475  0.04034898  0.43122226    -0.13000
F668        F  0.98123734  0.95653594  0.43186044    -0.15300
F669        F  0.99418472  0.03944689  0.28281331    -0.15300
F670        F  0.98857420  0.95661908  0.28331663    -0.13000
C671        C  0.84358448  0.82567855  0.30232860     0.25000
C672        C  0.87937312  0.80352432  0.29277043    -0.23100
C673        C  0.87687701  0.77657878  0.25925753     0.19900
C674        C  0.83911554  0.76964621  0.23866590     0.25000
C675        C  0.79990095  0.78234045  0.25544430    -0.23000
C676        C  0.80563373  0.81719029  0.28232391     0.19900
F677        F  0.77453908  0.84345496  0.29095486    -0.13000
F678        F  0.84510557  0.85649744  0.33063486    -0.15300
F679        F  0.84399236  0.76026164  0.19830284    -0.15300
F680        F  0.91188640  0.76024665  0.24317994    -0.13000
C681        C  0.22568458  0.75891262  0.33810582     0.25000
C682        C  0.24019714  0.72783487  0.31020096    -0.23100
C683        C  0.23714518  0.68631015  0.32651632     0.19900
C684        C  0.21521287  0.67715363  0.36302375     0.25000
C685        C  0.19870250  0.70862972  0.38721272    -0.23000
C686        C  0.20523483  0.74943094  0.37502416     0.19900
F687        F  0.19101095  0.78082050  0.39870480    -0.13000
F688        F  0.22967559  0.79944803  0.33040446    -0.15300
F689        F  0.21291788  0.63723512  0.37641282    -0.15300
F690        F  0.25823151  0.65412424  0.31062235    -0.13000
C691        C  0.24429445  0.66672261  0.23024203     0.25000
C692        C  0.27431057  0.69646594  0.24494764    -0.23100
C693        C  0.31643758  0.68211170  0.24199470     0.19900
C694        C  0.32671682  0.64485944  0.22237602     0.25000
C695        C  0.29620112  0.61793193  0.20731089    -0.23000
C696        C  0.25503701  0.62926514  0.21174041     0.19900
F697        F  0.22434296  0.60399885  0.19758747    -0.13000
F698        F  0.20346415  0.67241418  0.23316552    -0.15300
F699        F  0.36716338  0.63397687  0.22045413    -0.15300
F700        F  0.34888799  0.70102997  0.26067172    -0.13000
C701        C  0.26674488  0.84200487  0.24697679     0.25000
C702        C  0.24714710  0.81247182  0.22009178    -0.23100
C703        C  0.24109262  0.82798689  0.17846815     0.19900
C704        C  0.25750767  0.86615273  0.16500388     0.25000
C705        C  0.27887772  0.89200326  0.19205346    -0.23000
C706        C  0.28257979  0.87989529  0.23308982     0.19900
F707        F  0.30055617  0.90577290  0.26093279    -0.13000
F708        F  0.27176496  0.83589627  0.28752044    -0.15300
F709        F  0.25163646  0.87808914  0.12513836    -0.15300
F710        F  0.21623986  0.80933197  0.15039268    -0.13000
C711        C  0.13140259  0.83199598  0.28302441     0.25000
C712        C  0.10661665  0.80079327  0.30076828    -0.23100
C713        C  0.12057330  0.76026480  0.29874152     0.19900
C714        C  0.15801470  0.75078447  0.27932185     0.25000
C715        C  0.18517204  0.78151501  0.26105110    -0.23000
C716        C  0.16875903  0.82293027  0.26273504     0.19900
F717        F  0.18553521  0.85567082  0.24220295    -0.13000
F718        F  0.11834755  0.87182471  0.28304086    -0.15300
F719        F  0.16598751  0.71029080  0.27839360    -0.15300
F720        F  0.09760503  0.72883680  0.31545810    -0.13000
C721        C  0.33148101  0.78141157  0.24632466     0.25000
C722        C  0.30456791  0.76332448  0.27734888    -0.23100
C723        C  0.32277323  0.76268942  0.31803739     0.20900
C724        C  0.36089717  0.78209689  0.32682048     0.25000
C725        C  0.38503725  0.80083175  0.29576909    -0.23000
C726        C  0.37003688  0.79962634  0.25546401     0.19900
F727        F  0.39275253  0.81641429  0.22405178    -0.13000
F728        F  0.32158097  0.78317076  0.20619616    -0.15300
F729        F  0.37517258  0.78043939  0.36623201    -0.15300
F730        F  0.30694541  0.74010584  0.34987092    -0.13000
C731        C  0.60508414  0.75624344  0.28540558     0.25000
C732        C  0.60546993  0.79610057  0.30222284    -0.23100
C733        C  0.64350413  0.81244213  0.31531205     0.19900
C734        C  0.68049160  0.79162118  0.30785264     0.25000
C735        C  0.68202773  0.75385808  0.28555572    -0.23000
C736        C  0.64212424  0.73441204  0.27959288     0.19900
F737        F  0.63729161  0.69383274  0.27034387    -0.13000
F738        F  0.56856307  0.73751781  0.27565382    -0.15300
F739        F  0.71493318  0.81073612  0.32077216    -0.15300
F740        F  0.64552077  0.84988988  0.33409522    -0.13000
C741        C  0.48011730  0.82690217  0.51784183     0.25000
C742        C  0.49550944  0.86082901  0.54033581    -0.23100
C743        C  0.50981318  0.89628864  0.51880331     0.19900
C744        C  0.50966946  0.89726733  0.47563461     0.25000
C745        C  0.49586302  0.86258392  0.45330530    -0.23000
C746        C  0.48083162  0.82754671  0.47484381     0.19900
F747        F  0.46658411  0.79370787  0.45436047    -0.13000
F748        F  0.46470924  0.79267197  0.53732326    -0.15300
F749        F  0.52393139  0.93180081  0.45580370    -0.15300
F750        F  0.52410843  0.93003372  0.53938077    -0.13000
C751        C  0.35443721  0.81301150  0.69411081     0.25000
C752        C  0.39173639  0.79426101  0.70365634    -0.23100
C753        C  0.39076211  0.75370022  0.71910134     0.19900
C754        C  0.35298357  0.73281837  0.72651439     0.25000
C755        C  0.31379646  0.75275221  0.72095389    -0.23000
C756        C  0.31689959  0.79231241  0.70057597     0.19900
F757        F  0.28374290  0.81213863  0.68560422    -0.13000
F758        F  0.35406525  0.85105882  0.67591678    -0.15300
F759        F  0.35649328  0.69177414  0.73407385    -0.15300
F760        F  0.42669293  0.73331182  0.72575108    -0.13000
C761        C  0.19278695  0.30947500  0.35268460     0.25000
C762        C  0.21504088  0.30135231  0.38857756    -0.23100
C763        C  0.25364681  0.28254666  0.38469250     0.19900
C764        C  0.26970817  0.27186967  0.34574902     0.25000
C765        C  0.24686154  0.27824220  0.30811662    -0.23000
C766        C  0.20854999  0.29959585  0.31391693     0.19900
F767        F  0.18564621  0.31317112  0.28207469    -0.13000
F768        F  0.15594210  0.32925302  0.35456165    -0.15300
F769        F  0.30962912  0.25988150  0.34644166    -0.15300
F770        F  0.27699991  0.27554921  0.41880733    -0.13000
C771        C  0.34831135  0.26938780  0.25014910     0.25000
C772        C  0.31035822  0.25061684  0.26531158    -0.23100
C773        C  0.31639006  0.21092450  0.28441801     0.19900
C774        C  0.35527672  0.19458487  0.29247732     0.25000
C775        C  0.39133164  0.21621299  0.28202905    -0.23000
C776        C  0.38751758  0.25289378  0.25923244     0.19900
F777        F  0.42196511  0.27333563  0.24564274    -0.13000
F778        F  0.34930958  0.30316480  0.22528825    -0.15300
F779        F  0.35725041  0.15674304  0.31097666    -0.15300
F780        F  0.28513434  0.18665658  0.29717328    -0.13000
C781        C  0.29802825  0.34532496  0.26899758     0.25000
C782        C  0.26846662  0.31881538  0.24914300    -0.23100
C783        C  0.24042121  0.34068425  0.22296374     0.19900
C784        C  0.24963530  0.38022314  0.20749679     0.25000
C785        C  0.28517126  0.40152877  0.22017804    -0.23000
C786        C  0.30785025  0.38482782  0.25308838     0.19900
F787        F  0.34025309  0.40621223  0.26946682    -0.13000
F788        F  0.32041033  0.33192108  0.30175916    -0.15300
F789        F  0.22384708  0.39705571  0.17904768    -0.15300
F790        F  0.20375867  0.32491450  0.21096168    -0.13000
C791        C  0.24282514  0.11760036  0.21298230     0.25000
C792        C  0.28194769  0.11458471  0.19468491    -0.23100
C793        C  0.30501877  0.15090757  0.18875289     0.19900
C794        C  0.28949375  0.18928353  0.19997080     0.25000
C795        C  0.25101631  0.19403345  0.22148198    -0.23000
C796        C  0.22725087  0.15607006  0.22553005     0.19900
F797        F  0.18685060  0.15495630  0.23669862    -0.13000
F798        F  0.21809186  0.08343369  0.21658522    -0.15300
F799        F  0.31302770  0.22177347  0.18783057    -0.15300
F800        F  0.34298967  0.14988608  0.17067040    -0.13000
C801        C  0.19782990  0.23520271  0.15795775     0.25000
C802        C  0.22845125  0.25399500  0.18392899    -0.23100
C803        C  0.25682202  0.28049760  0.16199005     0.19900
C804        C  0.24743969  0.29706018  0.12323787     0.25000
C805        C  0.21164532  0.28478864  0.10246209    -0.23000
C806        C  0.18852297  0.25152973  0.11875514     0.19900
F807        F  0.15574638  0.23576662  0.09763852    -0.13000
F808        F  0.17452459  0.20256934  0.17124236    -0.15300
F809        F  0.27399032  0.32516014  0.10587140    -0.15300
F810        F  0.29364824  0.29229111  0.17729082    -0.13000
C811        C  0.18558419  0.21254334  0.29228705     0.25000
C812        C  0.18896325  0.23421980  0.25360990    -0.23100
C813        C  0.15007542  0.24978402  0.23860465     0.19900
C814        C  0.11208366  0.24019036  0.25844884     0.25000
C815        C  0.11085946  0.21574351  0.29429158    -0.23000
C816        C  0.14808006  0.20385065  0.31173429     0.19900
F817        F  0.14845677  0.18303662  0.34838905    -0.13000
F818        F  0.21830493  0.19763183  0.31223891    -0.15300
F819        F  0.07629706  0.25422741  0.24185678    -0.15300
F820        F  0.14726773  0.27542081  0.20559654    -0.13000
C821        C  0.14943887  0.15779389  0.71606034     0.25000
C822        C  0.11850687  0.18646942  0.70709087    -0.23100
C823        C  0.12787664  0.22820574  0.71275675     0.19900
C824        C  0.16535846  0.24101661  0.73025192     0.25000
C825        C  0.19666604  0.21294318  0.74381196    -0.23000
C826        C  0.18789105  0.17049112  0.73266675     0.19900
F827        F  0.21621607  0.14015580  0.73534904    -0.13000
F828        F  0.14275175  0.11691989  0.70864072    -0.15300
F829        F  0.16886338  0.28188824  0.73482656    -0.15300
F830        F  0.10044079  0.25760912  0.70110992    -0.13000
C831        C  0.84623159  0.20350250  0.76893479     0.25000
C832        C  0.81272499  0.21827157  0.74387209    -0.23100
C833        C  0.81933637  0.21066720  0.70062002     0.19900
C834        C  0.85769467  0.19993180  0.68410798     0.25000
C835        C  0.89121461  0.19116801  0.70955633    -0.23000
C836        C  0.88460591  0.19166603  0.75226056     0.19900
F837        F  0.91497640  0.17932387  0.77834044    -0.13000
F838        F  0.84295464  0.20069932  0.81044592    -0.15300
F839        F  0.86097678  0.19604157  0.64242985    -0.15300
F840        F  0.78884770  0.20905156  0.67268636    -0.13000
C841        C  0.98528097  0.96279099  0.69121530     0.25000
C842        C  0.00439830  0.94102475  0.65895062    -0.23100
C843        C  0.02279652  0.96325185  0.62612277     0.19900
C844        C  0.02180517  0.00635570  0.62530227     0.25000
C845        C  0.00243915  0.02807895  0.65734644    -0.23000
C846        C  0.98428449  0.00591211  0.69037288     0.19900
F847        F  0.96512413  0.02584896  0.72175259    -0.13000
F848        F  0.96759214  0.94252133  0.72377863    -0.15300
F849        F  0.04030539  0.02672976  0.59327311    -0.15300
F850        F  0.04157795  0.94336778  0.59451480    -0.13000
C851        C  0.12350026  0.79797963  0.75789288     0.25000
C852        C  0.10722161  0.77520445  0.72480965    -0.23100
C853        C  0.12883790  0.74050564  0.71172480     0.19900
C854        C  0.16845270  0.73261470  0.72664635     0.25000
C855        C  0.19001377  0.76158278  0.75212591    -0.23000
C856        C  0.16343895  0.78995235  0.77268098     0.19900
F857        F  0.17701035  0.81296495  0.80489402    -0.13000
F858        F  0.10161161  0.82910034  0.77509752    -0.15300
F859        F  0.18525001  0.69713183  0.71371837    -0.15300
F860        F  0.11216928  0.71429148  0.68346711    -0.13000
C861        C  0.69263789  0.64427829  0.81624307     0.25000
C862        C  0.69829942  0.60679324  0.79578971    -0.23100
C863        C  0.71103120  0.60855231  0.75451880     0.19900
C864        C  0.71809454  0.64656480  0.73415665     0.25000
C865        C  0.71665810  0.68580995  0.75520745    -0.23000
C866        C  0.70037345  0.68240521  0.79650423     0.19900
F867        F  0.69172827  0.71548397  0.81962851    -0.13000
F868        F  0.67915499  0.64452122  0.85603013    -0.15300
F869        F  0.72202714  0.64328978  0.69267175    -0.15300
F870        F  0.71493713  0.57310322  0.73260519    -0.13000
C871        C  0.72594408  0.72039489  0.65013492     0.25000
C872        C  0.74786095  0.71791254  0.68893071    -0.23100
C873        C  0.78725877  0.69802133  0.68580519     0.19900
C874        C  0.80458899  0.68604630  0.64817629     0.25000
C875        C  0.78333280  0.69120655  0.61109553    -0.23000
C876        C  0.74392068  0.70852005  0.61255597     0.19900
F877        F  0.72106389  0.71161705  0.57752485    -0.13000
F878        F  0.68526753  0.72957334  0.64723013    -0.15300
F879        F  0.84281621  0.66895386  0.64848322    -0.15300
F880        F  0.81079200  0.68981096  0.71878394    -0.13000
C881        C  0.68310147  0.79127642  0.70185970     0.25000
C882        C  0.68445117  0.75184627  0.72259152    -0.23100
C883        C  0.64421107  0.73315004  0.72958000     0.19900
C884        C  0.60731280  0.75413349  0.72056947     0.25000
C885        C  0.60801979  0.79315947  0.70164322    -0.23000
C886        C  0.64621177  0.81129755  0.69241678     0.19900
F887        F  0.64817071  0.84939193  0.67437130    -0.13000
F888        F  0.71731537  0.81181962  0.68978113    -0.15300
F889        F  0.57047228  0.73486532  0.72832084    -0.15300
F890        F  0.63871568  0.69345170  0.74222369    -0.13000
C891        C  0.85302518  0.78748306  0.68449437     0.25000
C892        C  0.88833274  0.78221073  0.70849186    -0.23100
C893        C  0.88341708  0.77041789  0.74963619     0.19900
C894        C  0.84398796  0.76498859  0.76705027     0.25000
C895        C  0.80634739  0.76814422  0.74302744    -0.23000
C896        C  0.81343602  0.78193309  0.70127474     0.19900
F897        F  0.78276468  0.79078146  0.67502801    -0.13000
F898        F  0.85653865  0.79848298  0.64402183    -0.15300
F899        F  0.84478729  0.76110116  0.80866594    -0.15300
F900        F  0.91708750  0.76698843  0.77445904    -0.13000
C901        C  0.71283837  0.19106905  0.20174571     0.25000
C902        C  0.75072887  0.19122149  0.22479688    -0.23100
C903        C  0.76252379  0.15133642  0.24054879     0.19900
C904        C  0.73723221  0.11614924  0.23623347     0.25000
C905        C  0.70042119  0.11725822  0.21365780    -0.23000
C906        C  0.68838519  0.15525005  0.19665938     0.19900
F907        F  0.65302981  0.15794116  0.17423022    -0.13000
F908        F  0.70039949  0.22552035  0.18135258    -0.15300
F909        F  0.75011245  0.08006061  0.25341835    -0.15300
F910        F  0.79875608  0.14398301  0.25985661    -0.13000
C911        C  0.67431301  0.85974268  0.21930086     0.25000
C912        C  0.70028730  0.89294621  0.20841762    -0.23100
C913        C  0.74191853  0.88433754  0.20000921     0.19900
C914        C  0.75780017  0.84456097  0.20731570     0.25000
C915        C  0.73321552  0.81186910  0.22569998    -0.23000
C916        C  0.68989529  0.81982450  0.22381569     0.19900
F917        F  0.66167860  0.78956808  0.21812959    -0.13000
F918        F  0.63262445  0.86468994  0.22081802    -0.15300
F919        F  0.79719034  0.83787818  0.19453826    -0.15300
F920        F  0.76726950  0.91399260  0.18356988    -0.13000
C921        C  0.69418799  0.00919847  0.98881306     0.25000
C922        C  0.66042012  0.99435701  0.96562734    -0.23100
C923        C  0.62417416  0.98124352  0.98630837     0.19900
C924        C  0.62140615  0.98351914  0.02917977     0.25000
C925        C  0.65483890  0.99891574  0.05239499    -0.23000
C926        C  0.69132874  0.01169394  0.03185730     0.19900
F927        F  0.72426579  0.02663645  0.05334995    -0.13000
F928        F  0.72948680  0.02252119  0.96984239    -0.15300
F929        F  0.58540058  0.97170203  0.04779463    -0.15300
F930        F  0.59112260  0.96622129  0.96504519    -0.13000
C931        C  0.68663981  0.85081234  0.80005370     0.25000
C932        C  0.71060234  0.88676926  0.79639466    -0.23100
C933        C  0.75001970  0.88373771  0.77862417     0.19900
C934        C  0.76513290  0.84553262  0.76455715     0.25000
C935        C  0.74153430  0.80742403  0.76889612    -0.23000
C936        C  0.70167177  0.81260083  0.78776320     0.19900
F937        F  0.67644637  0.78072653  0.79714974    -0.13000
F938        F  0.64878683  0.85171474  0.81841330    -0.15300
F939        F  0.80465305  0.84717059  0.75070578    -0.15300
F940        F  0.77522204  0.91765988  0.77640397    -0.13000
C941        C  0.72007918  0.11984586  0.76263620     0.25000
C942        C  0.71330635  0.11042690  0.80426291    -0.23100
C943        C  0.73185428  0.13593924  0.83360311     0.19900
C944        C  0.75427019  0.17121876  0.82122955     0.25000
C945        C  0.75217800  0.18745906  0.77969012    -0.23000
C946        C  0.74290537  0.15515525  0.75128128     0.19900
F947        F  0.76416568  0.15106895  0.71580589    -0.13000
F948        F  0.70873727  0.09267916  0.73275226    -0.15300
F949        F  0.78035417  0.18634972  0.85032643    -0.15300
F950        F  0.73186518  0.12482014  0.87415877    -0.13000
C951        C  0.17111911  0.74105954  0.18179478     0.25000
C952        C  0.21342902  0.74500361  0.19566816    -0.23100
C953        C  0.24340863  0.73065196  0.16643507     0.19900
C954        C  0.23260281  0.71220184  0.12915884     0.25000
C955        C  0.19138330  0.70737583  0.11774535    -0.23000
C956        C  0.16075382  0.72148483  0.14453134     0.19900
F957        F  0.12035755  0.71961450  0.13304924    -0.13000
F958        F  0.13900186  0.76002683  0.20035276    -0.15300
F959        F  0.26332609  0.69911929  0.10382367    -0.15300
F960        F  0.28425652  0.73371847  0.17267710    -0.13000
C961        C  0.20267745  0.68488818  0.85380827     0.25000
C962        C  0.20821055  0.70835612  0.88942601    -0.23100
C963        C  0.22618158  0.74770503  0.88549128     0.19900
C964        C  0.23688077  0.76414227  0.84664301     0.25000
C965        C  0.23237584  0.74066055  0.80908247    -0.23000
C966        C  0.21308649  0.70082390  0.81500707     0.19900
F967        F  0.20122462  0.67684213  0.78325626    -0.13000
F968        F  0.18479539  0.64662055  0.85584118    -0.15300
F969        F  0.24595655  0.80512693  0.84737401    -0.15300
F970        F  0.23109350  0.77196385  0.91929409    -0.13000
C971        C  0.97635647  0.71227934  0.01272059     0.25000
C972        C  0.95321039  0.68478020  0.98819977    -0.23100
C973        C  0.97366738  0.65899443  0.96010161     0.19900
C974        C  0.01664224  0.65774362  0.95950636     0.25000
C975        C  0.03970219  0.68280777  0.98634710    -0.23000
C976        C  0.01951440  0.71137050  0.01168238     0.19900
F977        F  0.04139928  0.73615330  0.03762514    -0.13000
F978        F  0.95739228  0.73814586  0.03947895    -0.15300
F979        F  0.03574895  0.63143646  0.93325701    -0.15300
F980        F  0.95210600  0.63420868  0.93385995    -0.13000
C981        C  0.77576131  0.75471732  0.88438145     0.25000
C982        C  0.79017260  0.71465378  0.88982252    -0.23100
C983        C  0.79497928  0.68979446  0.85515069     0.19900
C984        C  0.78437117  0.70400577  0.81587137     0.25000
C985        C  0.76795483  0.74446876  0.80845986    -0.23000
C986        C  0.76656739  0.77005508  0.84502759     0.19900
F987        F  0.76208175  0.81163034  0.84421271    -0.13000
F988        F  0.77273898  0.78051015  0.91720032    -0.15300
F989        F  0.79180362  0.67703184  0.78558514    -0.15300
F990        F  0.81226379  0.65177693  0.85864968    -0.13000
C991        C  0.79684092  0.69107815  0.15437164     0.25000
C992        C  0.78396410  0.70867845  0.11691776    -0.23100
C993        C  0.75657735  0.74177210  0.11834677     0.19900
C994        C  0.74464461  0.75907697  0.15584905     0.25000
C995        C  0.76141479  0.74539152  0.19465360    -0.23000
C996        C  0.78577719  0.70876430  0.19228570     0.19900
F997        F  0.80430825  0.69325943  0.22645649    -0.13000
F998        F  0.82207047  0.65776710  0.15454789    -0.15300
F999        F  0.71546745  0.78852437  0.15225145    -0.15300
F1000       F  0.74128668  0.75841123  0.08295117    -0.13000
loop_ 
_geom_bond_atom_site_label_1 
_geom_bond_atom_site_label_2 
_geom_bond_distance 
_geom_bond_site_symmetry_2 
_ccdc_geom_bond_type 
C1            C2   1.510       .  S
C1            C7   1.511       .  S
C1            C5   1.548       .  S
C1          C264   1.498       .  S
C2            H9   1.085       .  S
C2            C3   1.356       .  D
C3            C4   1.558   1_655  S
C3          C184   1.481       .  S
C4            C8   1.558   1_455  S
C4            C6   1.549       .  S
C4           H10   1.111       .  S
C5           H11   1.086       .  S
C5            C6   1.383   1_655  D
C6          C387   1.488       .  S
C7           H12   1.084       .  S
C7            C8   1.361       .  D
C8          C128   1.484       .  S
C13          C14   1.514       .  S
C13          C19   1.519   1_545  S
C13          C17   1.550       .  S
C13         C333   1.494       .  S
C14          H21   1.091       .  S
C14          C15   1.357       .  D
C15          C16   1.551       .  S
C15         C292   1.469       .  S
C16          C20   1.550   1_545  S
C16          C18   1.538       .  S
C16          H22   1.110       .  S
C17          H23   1.084       .  S
C17          C18   1.381       .  D
C18         C113   1.481       .  S
C19          H24   1.090       .  S
C19          C20   1.355       .  D
C20         C169   1.473       .  S
C25          C26   1.518       .  S
C25          C31   1.514   1_545  S
C25          C29   1.545       .  S
C25         C100   1.496       .  S
C26          H33   1.089       .  S
C26          C27   1.358       .  D
C27          C28   1.556       .  S
C27         C305   1.475       .  S
C28          C32   1.552   1_545  S
C28          C30   1.545       .  S
C28          H34   1.110       .  S
C29          H35   1.085       .  S
C29          C30   1.383       .  D
C30         C320   1.484       .  S
C31          H36   1.090       .  S
C31          C32   1.355       .  D
C32         C156   1.479       .  S
C37          C38   1.505       .  S
C37          C43   1.513   1_554  S
C37          C41   1.544       .  S
C37          C74   1.484       .  S
C38          H45   1.090       .  S
C38          C39   1.352       .  D
C39          C40   1.558       .  S
C39         C223   1.474       .  S
C40          C44   1.552   1_554  S
C40          C42   1.547       .  S
C40          H46   1.110       .  S
C41          H47   1.085       .  S
C41          C42   1.381       .  D
C42         C238   1.481       .  S
C43          H48   1.090       .  S
C43          C44   1.356       .  D
C44         C346   1.475       .  S
C49          C50   1.518   1_554  S
C49          C55   1.507       .  S
C49          C53   1.540       .  S
C49          C87   1.492       .  S
C50          H57   1.088       .  S
C50          C51   1.360       .  D
C51          C52   1.558   1_556  S
C51         C359   1.486       .  S
C52          C56   1.563       .  S
C52          C54   1.551       .  S
C52          H58   1.110       .  S
C53          H59   1.084       .  S
C53          C54   1.378       .  D
C54         C251   1.482       .  S
C55          H60   1.092       .  S
C55          C56   1.354       .  D
C56         C210   1.482       .  S
C61          C62   1.511       .  S
C61          C67   1.510       .  S
C61          C65   1.541       .  S
C61         C374   1.490       .  S
C62          H69   1.089       .  S
C62          C63   1.357       .  D
C63          C64   1.557   1_455  S
C63         C197   1.474       .  S
C64          C68   1.559   1_655  S
C64          C66   1.544       .  S
C64          H70   1.110       .  S
C65          H71   1.087       .  S
C65          C66   1.378   1_455  D
C66         C277   1.485       .  S
C67          H72   1.086       .  S
C67          C68   1.360       .  D
C68         C141   1.476       .  S
In73         O75   2.261       .  S
In73         O76   2.240       .  S
In73         O84   2.242       .  S
In73         O78   2.200   1_554  S
In73         O80   2.258       .  S
In73         O81   2.263   1_554  S
In73         O82   2.169       .  S
In73         O85   2.226   1_554  S
C74          O80   1.261       .  A
C74          O82   1.263       .  A
O75          C83   1.262       .  A
O76          C83   1.262       .  A
C77          O84   1.260   1_556  A
C77          O78   1.256       .  A
C77         C972   1.465       .  S
C79          O81   1.262       .  A
C79          O85   1.255       .  A
C79         C982   1.477       .  S
C83         C992   1.489       .  S
In86         O88   2.230   1_554  S
In86         O89   2.264   1_554  S
In86         O97   2.226   1_554  S
In86         O91   2.208   1_554  S
In86         O93   2.279       .  S
In86         O94   2.237       .  S
In86         O95   2.180       .  S
In86         O98   2.262       .  S
C87          O93   1.261       .  A
C87          O95   1.259       .  A
O88          C96   1.257       .  A
O89          C96   1.262       .  A
C90          O97   1.261       .  A
C90          O91   1.261       .  A
C90         C975   1.459       .  S
C92          O94   1.261       .  A
C92          O98   1.260       .  A
C92         C955   1.481       .  S
C96         C962   1.484       .  S
In99        O101   2.252   1_565  S
In99        O102   2.231   1_565  S
In99        O110   2.252       .  S
In99        O104   2.213       .  S
In99        O106   2.285       .  S
In99        O107   2.286       .  S
In99        O108   2.204   1_565  S
In99        O111   2.241       .  S
C100        O106   1.259   1_545  A
C100        O108   1.258       .  A
O101        C109   1.260       .  A
O102        C109   1.258       .  A
C103        O110   1.264       .  A
C103        O104   1.260       .  A
C103        C922   1.475       .  S
C105        O107   1.258       .  A
C105        O111   1.257       .  A
C105        C932   1.490       .  S
C109        C942   1.476       .  S
In112       O114   2.257   1_545  S
In112       O115   2.278   1_545  S
In112       O123   2.241       .  S
In112       O117   2.230   1_545  S
In112       O119   2.264       .  S
In112       O120   2.253       .  S
In112       O121   2.250       .  S
In112       O124   2.262       .  S
C113        O119   1.259       .  A
C113        O121   1.264       .  A
O114        C122   1.259       .  A
O115        C122   1.257       .  A
C116        O123   1.259       .  A
C116        O117   1.260   1_545  A
C116        C925   1.474   1_545  S
C118        O120   1.263       .  A
C118        O124   1.260       .  A
C118        C905   1.492       .  S
C122        C912   1.490       .  S
C125        C895   1.620       .  S
C125        C935   1.614       .  S
C125        C985   1.610       .  S
C125        C126   1.757       .  S
C126        C865   1.624       .  S
C126        C872   1.615       .  S
C126        C882   1.614       .  S
In127       O129   2.249       .  S
In127       O130   2.261       .  S
In127       O138   2.222   1_455  S
In127       O132   2.234       .  S
In127       O134   2.313       .  S
In127       O135   2.259   1_455  S
In127       O136   2.191   1_455  S
In127       O139   2.229   1_455  S
C128        O134   1.263   1_655  A
C128        O136   1.259       .  A
O129        C137   1.259       .  A
O130        C137   1.256       .  A
C131        O138   1.257   1_455  A
C131        O132   1.262       .  A
C131        C842   1.472       .  S
C133        O135   1.264       .  A
C133        O139   1.260       .  A
C133        C892   1.481       .  S
C137        C852   1.483       .  S
In140       O142   2.247   1_455  S
In140       O143   2.277   1_455  S
In140       O151   2.223   1_455  S
In140       O145   2.225       .  S
In140       O147   2.302   1_455  S
In140       O148   2.250       .  S
In140       O149   2.192       .  S
In140       O152   2.281       .  S
C141        O147   1.260   1_455  A
C141        O149   1.258       .  A
O142        C150   1.259       .  A
O143        C150   1.261       .  A
C144        O151   1.260   1_455  A
C144        O145   1.261       .  A
C144        C845   1.470       .  S
C146        O148   1.264       .  A
C146        O152   1.261       .  A
C146        C822   1.494       .  S
C150        C835   1.492       .  S
C153        C795   1.612       .  S
C153        C802   1.602       .  S
C153        C812   1.617       .  S
C153        C154   1.747       .  S
C154        C765   1.614       .  S
C154        C772   1.624       .  S
C154        C782   1.606       .  S
In155       O157   2.246       .  S
In155       O158   2.252       .  S
In155       O166   2.238       .  S
In155       O160   2.247       .  S
In155       O162   2.297       .  S
In155       O163   2.266       .  S
In155       O164   2.200       .  S
In155       O167   2.253       .  S
C156        O162   1.259       .  A
C156        O164   1.260       .  A
O157        C165   1.262       .  A
O158        C165   1.258       .  A
C159        O166   1.258       .  A
C159        O160   1.257       .  A
C159        C742   1.476       .  S
C161        O163   1.261       .  A
C161        O167   1.262       .  A
C161        C885   1.485       .  S
C165        C752   1.480       .  S
In168       O170   2.247       .  S
In168       O171   2.285       .  S
In168       O179   2.214       .  S
In168       O173   2.243       .  S
In168       O175   2.289       .  S
In168       O176   2.283       .  S
In168       O177   2.233       .  S
In168       O180   2.246       .  S
C169        O175   1.260       .  A
C169        O177   1.256       .  A
O170        C178   1.258       .  A
O171        C178   1.263       .  A
C172        O179   1.259       .  A
C172        O173   1.261       .  A
C172        C745   1.472       .  S
C174        O176   1.267       .  A
C174        O180   1.259       .  A
C174        C725   1.497       .  S
C178        C732   1.493       .  S
C181        C702   1.613       .  S
C181        C715   1.628       .  S
C181        C952   1.608       .  S
C181        C182   1.754       .  S
C182        C682   1.610       .  S
C182        C692   1.628       .  S
C182        C722   1.622       .  S
In183       O185   2.272       .  S
In183       O186   2.287       .  S
In183       O194   2.207       .  S
In183       O188   2.238       .  S
In183       O190   2.311   1_655  S
In183       O191   2.275   1_655  S
In183       O192   2.194       .  S
In183       O195   2.268   1_655  S
C184        O190   1.259   1_655  A
C184        O192   1.259       .  A
O185        C193   1.260       .  A
O186        C193   1.266       .  A
C187        O194   1.261       .  A
C187        O188   1.263       .  A
C187        C662   1.473       .  S
C189        O191   1.261       .  A
C189        O195   1.256       .  A
C189        C712   1.494       .  S
C193        C672   1.503       .  S
In196       O198   2.226       .  S
In196       O199   2.289       .  S
In196       O207   2.223       .  S
In196       O201   2.253   1_455  S
In196       O203   2.284   1_455  S
In196       O204   2.252   1_455  S
In196       O205   2.210       .  S
In196       O208   2.236   1_455  S
C197        O203   1.261   1_455  A
C197        O205   1.261       .  A
O198        C206   1.260       .  A
O199        C206   1.263       .  A
C200        O207   1.258   1_655  A
C200        O201   1.257       .  A
C200        C665   1.471       .  S
C202        O204   1.258       .  A
C202        O208   1.261       .  A
C202        C652   1.473       .  S
C206        C815   1.484       .  S
In209       O211   2.255       .  S
In209       O212   2.260       .  S
In209       O220   2.222       .  S
In209       O214   2.249       .  S
In209       O216   2.312       .  S
In209       O217   2.276       .  S
In209       O218   2.205       .  S
In209       O221   2.268       .  S
C210        O216   1.262       .  A
C210        O218   1.261       .  A
O211        C219   1.257       .  A
O212        C219   1.262       .  A
C213        O220   1.258       .  A
C213        O214   1.262       .  A
C213        C645   1.475       .  S
C215        O217   1.262       .  A
C215        O221   1.257       .  A
C215        C695   1.491       .  S
C219        C785   1.486       .  S
In222       O224   2.270       .  S
In222       O225   2.274       .  S
In222       O233   2.230       .  S
In222       O227   2.240       .  S
In222       O229   2.293       .  S
In222       O230   2.248       .  S
In222       O231   2.190       .  S
In222       O234   2.262       .  S
C223        O229   1.261       .  A
C223        O231   1.263       .  A
O224        C232   1.262       .  A
O225        C232   1.263       .  A
C226        O233   1.258       .  A
C226        O227   1.259       .  A
C226        C642   1.476       .  S
C228        O230   1.257       .  A
C228        O234   1.258       .  A
C228        C625   1.478       .  S
C232        C632   1.499       .  S
C235        C675   1.640       .  S
C235        C915   1.614       .  S
C235        C995   1.607       .  S
C235        C236   1.768       .  S
C236        C615   1.611       .  S
C236        C635   1.623       .  S
C236        C735   1.602       .  S
In237       O239   2.283       .  S
In237       O240   2.280       .  S
In237       O248   2.237   1_556  S
In237       O242   2.239       .  S
In237       O244   2.265   1_556  S
In237       O245   2.288   1_556  S
In237       O246   2.268       .  S
In237       O249   2.273   1_556  S
C238        O244   1.256       .  A
C238        O246   1.260   1_554  A
O239        C247   1.257       .  A
O240        C247   1.262       .  A
C241        O248   1.262   1_556  A
C241        O242   1.262       .  A
C241        C582   1.479       .  S
C243        O245   1.263       .  A
C243        O249   1.260       .  A
C243        C592   1.500       .  S
C247        C602   1.500       .  S
In250       O252   2.249   1_556  S
In250       O253   2.270   1_556  S
In250       O261   2.239   1_556  S
In250       O255   2.228       .  S
In250       O257   2.265   1_556  S
In250       O258   2.258       .  S
In250       O259   2.268       .  S
In250       O262   2.274       .  S
C251        O257   1.258       .  A
C251        O259   1.260   1_554  A
O252        C260   1.259       .  A
O253        C260   1.259       .  A
C254        O261   1.264       .  A
C254        O255   1.263   1_554  A
C254        C585   1.478       .  S
C256        O258   1.259       .  A
C256        O262   1.255       .  A
C256        C572   1.490       .  S
C260        C805   1.482       .  S
In263       O265   2.271       .  S
In263       O266   2.245       .  S
In263       O274   2.238       .  S
In263       O268   2.226       .  S
In263       O270   2.279       .  S
In263       O271   2.259       .  S
In263       O272   2.194       .  S
In263       O275   2.255       .  S
C264        O270   1.261       .  A
C264        O272   1.263       .  A
O265        C273   1.260       .  A
O266        C273   1.257       .  A
C267        O274   1.260       .  A
C267        O268   1.258       .  A
C267        C562   1.474       .  S
C269        O271   1.261       .  A
C269        O275   1.261       .  A
C269        C875   1.490       .  S
C273        C612   1.486       .  S
In276       O278   2.265       .  S
In276       O279   2.262       .  S
In276       O287   2.246       .  S
In276       O281   2.223       .  S
In276       O283   2.240       .  S
In276       O284   2.278       .  S
In276       O285   2.289       .  S
In276       O288   2.254       .  S
C277        O283   1.255       .  A
C277        O285   1.265       .  A
O278        C286   1.260       .  A
O279        C286   1.262       .  A
C280        O287   1.259       .  A
C280        O281   1.258       .  A
C280        C565   1.471       .  S
C282        O284   1.260       .  A
C282        O288   1.257       .  A
C282        C542   1.493       .  S
C286        C555   1.489       .  S
C289        C595   1.636       .  S
C289        C655   1.609       .  S
C289        C902   1.611       .  S
C289        C290   1.770       .  S
C290        C532   1.613       .  S
C290        C545   1.607       .  S
C290        C622   1.602       .  S
In291       O293   2.236       .  S
In291       O294   2.280       .  S
In291       O302   2.266       .  S
In291       O296   2.232       .  S
In291       O298   2.273       .  S
In291       O299   2.265       .  S
In291       O300   2.206       .  S
In291       O303   2.240       .  S
C292        O298   1.258       .  A
C292        O300   1.261       .  A
O293        C301   1.261       .  A
O294        C301   1.262       .  A
C295        O302   1.262       .  A
C295        O296   1.256       .  A
C295        C522   1.483       .  S
C297        O299   1.260       .  A
C297        O303   1.258       .  A
C297        C535   1.479       .  S
C301        C775   1.489       .  S
In304       O306   2.263       .  S
In304       O307   2.266       .  S
In304       O315   2.251       .  S
In304       O309   2.248       .  S
In304       O311   2.283       .  S
In304       O312   2.275       .  S
In304       O313   2.227       .  S
In304       O316   2.254       .  S
C305        O311   1.260       .  A
C305        O313   1.262       .  A
O306        C314   1.262       .  A
O307        C314   1.262       .  A
C308        O315   1.259       .  A
C308        O309   1.260       .  A
C308        C525   1.484       .  S
C310        O312   1.259       .  A
C310        O316   1.259       .  A
C310        C502   1.491       .  S
C314        C512   1.493       .  S
C317        C605   1.631       .  S
C317        C832   1.628       .  S
C317        C945   1.620       .  S
C317        C318   1.777       .  S
C318        C492   1.623       .  S
C318        C515   1.628       .  S
C318        C552   1.594       .  S
In319       O321   2.196       .  S
In319       O322   2.291       .  S
In319       O330   2.228       .  S
In319       O324   2.227       .  S
In319       O326   2.242   1_565  S
In319       O327   2.265   1_565  S
In319       O328   2.273       .  S
In319       O331   2.233   1_565  S
C320        O326   1.258       .  A
C320        O328   1.268   1_545  A
O321        C329   1.256       .  A
O322        C329   1.262       .  A
C323        O330   1.258       .  A
C323        O324   1.258       .  A
C323        C462   1.470       .  S
C325        O327   1.258       .  A
C325        O331   1.260       .  A
C325        C472   1.481       .  S
C329        C482   1.481       .  S
In332       O334   2.231       .  S
In332       O335   2.274       .  S
In332       O343   2.224       .  S
In332       O337   2.228   1_545  S
In332       O339   2.275       .  S
In332       O340   2.268   1_545  S
In332       O341   2.196       .  S
In332       O344   2.229   1_545  S
C333        O339   1.261       .  A
C333        O341   1.261       .  A
O334        C342   1.260       .  A
O335        C342   1.262       .  A
C336        O343   1.261   1_565  A
C336        O337   1.261       .  A
C336        C465   1.472       .  S
C338        O340   1.258       .  A
C338        O344   1.255       .  A
C338        C705   1.474       .  S
C342        C792   1.489       .  S
In345       O347   2.268       .  S
In345       O348   2.264       .  S
In345       O356   2.242       .  S
In345       O350   2.243       .  S
In345       O352   2.301       .  S
In345       O353   2.270       .  S
In345       O354   2.195       .  S
In345       O357   2.258       .  S
C346        O352   1.259       .  A
C346        O354   1.258       .  A
O347        C355   1.259       .  A
O348        C355   1.260       .  A
C349        O356   1.259       .  A
C349        O350   1.259       .  A
C349        C452   1.478       .  S
C351        O353   1.264       .  A
C351        O357   1.262       .  A
C351        C862   1.497       .  S
C355        C495   1.491       .  S
In358       O360   2.228       .  S
In358       O361   2.310       .  S
In358       O369   2.236       .  S
In358       O363   2.228       .  S
In358       O365   2.319       .  S
In358       O366   2.251       .  S
In358       O367   2.218       .  S
In358       O370   2.259       .  S
C359        O365   1.258       .  A
C359        O367   1.255       .  A
O360        C368   1.260       .  A
O361        C368   1.266       .  A
C362        O369   1.262       .  A
C362        O363   1.263       .  A
C362        C455   1.477       .  S
C364        O366   1.264       .  A
C364        O370   1.256       .  A
C364        C442   1.486       .  S
C368        C432   1.497       .  S
C371        C475   1.599       .  S
C371        C575   1.612       .  S
C371        C825   1.629       .  S
C371        C372   1.745       .  S
C372        C422   1.608       .  S
C372        C445   1.621       .  S
C372        C505   1.608       .  S
In373       O375   2.243       .  S
In373       O376   2.273       .  S
In373       O384   2.244       .  S
In373       O378   2.214       .  S
In373       O380   2.263       .  S
In373       O381   2.249       .  S
In373       O382   2.203       .  S
In373       O385   2.256       .  S
C374        O380   1.259       .  A
C374        O382   1.259       .  A
O375        C383   1.259       .  A
O376        C383   1.262       .  A
C377        O384   1.265       .  A
C377        O378   1.260       .  A
C377        C415   1.475       .  S
C379        O381   1.259       .  A
C379        O385   1.257       .  A
C379        C425   1.478       .  S
C383        C762   1.489       .  S
In386       O388   2.287       .  S
In386       O389   2.257       .  S
In386       O397   2.217       .  S
In386       O391   2.246       .  S
In386       O393   2.279       .  S
In386       O394   2.255       .  S
In386       O395   2.270       .  S
In386       O398   2.249       .  S
C387        O393   1.259       .  A
C387        O395   1.261       .  A
O388        C396   1.255       .  A
O389        C396   1.259       .  A
C390        O397   1.259       .  A
C390        O391   1.265       .  A
C390        C412   1.475       .  S
C392        O394   1.262       .  A
C392        O398   1.257       .  A
C392        C685   1.476       .  S
C396        C405   1.490       .  S
C399        C485   1.616       .  S
C399        C855   1.596       .  S
C399        C965   1.610       .  S
C399        C400   1.748       .  S
C400        C402   1.608       .  S
C400        C435   1.626       .  S
C400        C755   1.611       .  S
C401        C402   1.429       .  A
C401        C406   1.393       .  A
C401        F408   1.339       .  S
C402        C403   1.430       .  A
C403        C404   1.412       .  A
C403        F410   1.357       .  S
C404        C405   1.406       .  A
C404        F409   1.357       .  S
C405        C406   1.393       .  A
C406        F407   1.359       .  S
C411        C412   1.410       .  A
C411        C416   1.396       .  A
C411        F418   1.358       .  S
C412        C413   1.405       .  A
C413        C414   1.395       .  A
C413        F420   1.358       .  S
C414        C415   1.409       .  A
C414        F419   1.358       .  S
C415        C416   1.405       .  A
C416        F417   1.358       .  S
C421        C422   1.436       .  A
C421        C426   1.395       .  A
C421        F428   1.343       .  S
C422        C423   1.442       .  A
C423        C424   1.402       .  A
C423        F430   1.352       .  S
C424        C425   1.394       .  A
C424        F429   1.359       .  S
C425        C426   1.391       .  A
C426        F427   1.359       .  S
C431        C432   1.402       .  A
C431        C436   1.419       .  A
C431        F438   1.357       .  S
C432        C433   1.392       .  A
C433        C434   1.391       .  A
C433        F440   1.360       .  S
C434        C435   1.431       .  A
C434        F439   1.331       .  S
C435        C436   1.446       .  A
C436        F437   1.351       .  S
C441        C442   1.388       .  A
C441        C446   1.392       .  A
C441        F448   1.359       .  S
C442        C443   1.402       .  A
C443        C444   1.409       .  A
C443        F450   1.358       .  S
C444        C445   1.441       .  A
C444        F449   1.351       .  S
C445        C446   1.435       .  A
C446        F447   1.333       .  S
C451        C452   1.407       .  A
C451        C456   1.397       .  A
C451        F458   1.358       .  S
C452        C453   1.407       .  A
C453        C454   1.396       .  A
C453        F460   1.358       .  S
C454        C455   1.407       .  A
C454        F459   1.358       .  S
C455        C456   1.408       .  A
C456        F457   1.358       .  S
C461        C462   1.406       .  A
C461        C466   1.394   1_556  A
C461        F468   1.358       .  S
C462        C463   1.406   1_565  A
C463        C464   1.393   1_556  A
C463        F470   1.358       .  S
C464        C465   1.406   1_545  A
C464        F469   1.358       .  S
C465        C466   1.407       .  A
C466        F467   1.358       .  S
C471        C472   1.405       .  A
C471        C476   1.408       .  A
C471        F478   1.358       .  S
C472        C473   1.393       .  A
C473        C474   1.390       .  A
C473        F480   1.359       .  S
C474        C475   1.427       .  A
C474        F479   1.340       .  S
C475        C476   1.430       .  A
C476        F477   1.357       .  S
C481        C482   1.399       .  A
C481        C486   1.413       .  A
C481        F488   1.358       .  S
C482        C483   1.388       .  A
C483        C484   1.383       .  A
C483        F490   1.360       .  S
C484        C485   1.430       .  A
C484        F489   1.332       .  S
C485        C486   1.445       .  A
C486        F487   1.351       .  S
C491        C492   1.443       .  A
C491        C496   1.402       .  A
C491        F498   1.355       .  S
C492        C493   1.430       .  A
C493        C494   1.404       .  A
C493        F500   1.353       .  S
C494        C495   1.398       .  A
C494        F499   1.358       .  S
C495        C496   1.397       .  A
C496        F497   1.359       .  S
C501        C502   1.403       .  A
C501        C506   1.408       .  A
C501        F508   1.358       .  S
C502        C503   1.397       .  A
C503        C504   1.399       .  A
C503        F510   1.359       .  S
C504        C505   1.431       .  A
C504        F509   1.342       .  S
C505        C506   1.431       .  A
C506        F507   1.355       .  S
C511        C512   1.396       .  A
C511        C516   1.405       .  A
C511        F518   1.359       .  S
C512        C513   1.396       .  A
C513        C514   1.404       .  A
C513        F520   1.359       .  S
C514        C515   1.427       .  A
C514        F519   1.338       .  S
C515        C516   1.447       .  A
C516        F517   1.356       .  S
C521        C522   1.410       .  A
C521        C526   1.397       .  A
C521        F528   1.358       .  S
C522        C523   1.407       .  A
C523        C524   1.400       .  A
C523        F530   1.358       .  S
C524        C525   1.410       .  A
C524        F529   1.358       .  S
C525        C526   1.407       .  A
C526        F527   1.358       .  S
C531        C532   1.432       .  A
C531        C536   1.394       .  A
C531        F538   1.341       .  S
C532        C533   1.440       .  A
C533        C534   1.404       .  A
C533        F540   1.358       .  S
C534        C535   1.397       .  A
C534        F539   1.358       .  S
C535        C536   1.393       .  A
C536        F537   1.359       .  S
C541        C542   1.400       .  A
C541        C546   1.406       .  A
C541        F548   1.358       .  S
C542        C543   1.399       .  A
C543        C544   1.401       .  A
C543        F550   1.358       .  S
C544        C545   1.425       .  A
C544        F549   1.337       .  S
C545        C546   1.442       .  A
C546        F547   1.354       .  S
C551        C552   1.426       .  A
C551        C556   1.405       .  A
C551        F558   1.343       .  S
C552        C553   1.435       .  A
C553        C554   1.403       .  A
C553        F560   1.355       .  S
C554        C555   1.401       .  A
C554        F559   1.358       .  S
C555        C556   1.402       .  A
C556        F557   1.358       .  S
C561        C562   1.407       .  A
C561        C566   1.393       .  A
C561        F568   1.358       .  S
C562        C563   1.407       .  A
C563        C564   1.397       .  A
C563        F570   1.358       .  S
C564        C565   1.406       .  A
C564        F569   1.358       .  S
C565        C566   1.405       .  A
C566        F567   1.358       .  S
C571        C572   1.393       .  A
C571        C576   1.394       .  A
C571        F578   1.359       .  S
C572        C573   1.403       .  A
C573        C574   1.409       .  A
C573        F580   1.358       .  S
C574        C575   1.437       .  A
C574        F579   1.352       .  S
C575        C576   1.436       .  A
C576        F577   1.344       .  S
C581        C582   1.408       .  A
C581        C586   1.397   1_655  A
C581        F588   1.358       .  S
C582        C583   1.408   1_556  A
C583        C584   1.397   1_655  A
C583        F590   1.358       .  S
C584        C585   1.407       .  A
C584        F589   1.358       .  S
C585        C586   1.407   1_554  A
C586        F587   1.358       .  S
C591        C592   1.399       .  A
C591        C596   1.410       .  A
C591        F598   1.358       .  S
C592        C593   1.399       .  A
C593        C594   1.409       .  A
C593        F600   1.358       .  S
C594        C595   1.433       .  A
C594        F599   1.351       .  S
C595        C596   1.443       .  A
C596        F597   1.355       .  S
C601        C602   1.403       .  A
C601        C606   1.412       .  A
C601        F608   1.358       .  S
C602        C603   1.393       .  A
C603        C604   1.400       .  A
C603        F610   1.359       .  S
C604        C605   1.442       .  A
C604        F609   1.353       .  S
C605        C606   1.438       .  A
C606        F607   1.352       .  S
C611        C612   1.398       .  A
C611        C616   1.396       .  A
C611        F618   1.359       .  S
C612        C613   1.400       .  A
C613        C614   1.406       .  A
C613        F620   1.358       .  S
C614        C615   1.439       .  A
C614        F619   1.354       .  S
C615        C616   1.416       .  A
C616        F617   1.338       .  S
C621        C622   1.408       .  A
C621        C626   1.393       .  A
C621        F628   1.346       .  S
C622        C623   1.438       .  A
C623        C624   1.404       .  A
C623        F630   1.353       .  S
C624        C625   1.401       .  A
C624        F629   1.358       .  S
C625        C626   1.398       .  A
C626        F627   1.358       .  S
C631        C632   1.400       .  A
C631        C636   1.405       .  A
C631        F638   1.358       .  S
C632        C633   1.402       .  A
C633        C634   1.407       .  A
C633        F640   1.358       .  S
C634        C635   1.432       .  A
C634        F639   1.346       .  S
C635        C636   1.441       .  A
C636        F637   1.358       .  S
C641        C642   1.408       .  A
C641        C646   1.397       .  A
C641        F648   1.358       .  S
C642        C643   1.407       .  A
C643        C644   1.395       .  A
C643        F650   1.358       .  S
C644        C645   1.408       .  A
C644        F649   1.358       .  S
C645        C646   1.406       .  A
C646        F647   1.358       .  S
C651        C652   1.398       .  A
C651        C656   1.407       .  A
C651        F658   1.358       .  S
C652        C653   1.388       .  A
C653        C654   1.390       .  A
C653        F660   1.360       .  S
C654        C655   1.430       .  A
C654        F659   1.339       .  S
C655        C656   1.440       .  A
C656        F657   1.357       .  S
C661        C662   1.408       .  A
C661        C666   1.399   1_565  A
C661        F668   1.358       .  S
C662        C663   1.406       .  A
C663        C664   1.389   1_565  A
C663        F670   1.358       .  S
C664        C665   1.404       .  A
C664        F669   1.358       .  S
C665        C666   1.408       .  A
C666        F667   1.358       .  S
C671        C672   1.402       .  A
C671        C676   1.413       .  A
C671        F678   1.358       .  S
C672        C673   1.397       .  A
C673        C674   1.408       .  A
C673        F680   1.358       .  S
C674        C675   1.442       .  A
C674        F679   1.353       .  S
C675        C676   1.438       .  A
C676        F677   1.353       .  S
C681        C682   1.437       .  A
C681        C686   1.395       .  A
C681        F688   1.336       .  S
C682        C683   1.440       .  A
C683        C684   1.404       .  A
C683        F690   1.354       .  S
C684        C685   1.398       .  A
C684        F689   1.359       .  S
C685        C686   1.387       .  A
C686        F687   1.359       .  S
C691        C692   1.441       .  A
C691        C696   1.401       .  A
C691        F698   1.337       .  S
C692        C693   1.446       .  A
C693        C694   1.407       .  A
C693        F700   1.353       .  S
C694        C695   1.397       .  A
C694        F699   1.359       .  S
C695        C696   1.391       .  A
C696        F697   1.359       .  S
C701        C702   1.438       .  A
C701        C706   1.392       .  A
C701        F708   1.336       .  S
C702        C703   1.449       .  A
C703        C704   1.402       .  A
C703        F710   1.354       .  S
C704        C705   1.392       .  A
C704        F709   1.359       .  S
C705        C706   1.388       .  A
C706        F707   1.360       .  S
C711        C712   1.399       .  A
C711        C716   1.408       .  A
C711        F718   1.359       .  S
C712        C713   1.392       .  A
C713        C714   1.400       .  A
C713        F720   1.359       .  S
C714        C715   1.440       .  A
C714        F719   1.337       .  S
C715        C716   1.446       .  A
C716        F717   1.352       .  S
C721        C722   1.443       .  A
C721        C726   1.404       .  A
C721        F728   1.340       .  S
C722        C723   1.444       .  A
C723        C724   1.406       .  A
C723        F730   1.354       .  S
C724        C725   1.400       .  A
C724        F729   1.359       .  S
C725        C726   1.393       .  A
C726        F727   1.359       .  S
C731        C732   1.401       .  A
C731        C736   1.409       .  A
C731        F738   1.358       .  S
C732        C733   1.399       .  A
C733        C734   1.400       .  A
C733        F740   1.358       .  S
C734        C735   1.423       .  A
C734        F739   1.335       .  S
C735        C736   1.441       .  A
C736        F737   1.354       .  S
C741        C742   1.406       .  A
C741        C746   1.392       .  A
C741        F748   1.358       .  S
C742        C743   1.409       .  A
C743        C744   1.398       .  A
C743        F750   1.358       .  S
C744        C745   1.406       .  A
C744        F749   1.358       .  S
C745        C746   1.406       .  A
C746        F747   1.358       .  S
C751        C752   1.390       .  A
C751        C756   1.392       .  A
C751        F758   1.359       .  S
C752        C753   1.399       .  A
C753        C754   1.406       .  A
C753        F760   1.358       .  S
C754        C755   1.438       .  A
C754        F759   1.353       .  S
C755        C756   1.436       .  A
C756        F757   1.344       .  S
C761        C762   1.393       .  A
C761        C766   1.394       .  A
C761        F768   1.359       .  S
C762        C763   1.400       .  A
C763        C764   1.409       .  A
C763        F770   1.358       .  S
C764        C765   1.441       .  A
C764        F769   1.351       .  S
C765        C766   1.437       .  A
C766        F767   1.344       .  S
C771        C772   1.445       .  A
C771        C776   1.411       .  A
C771        F778   1.351       .  S
C772        C773   1.435       .  A
C773        C774   1.393       .  A
C773        F780   1.334       .  S
C774        C775   1.391       .  A
C774        F779   1.360       .  S
C775        C776   1.398       .  A
C776        F777   1.358       .  S
C781        C782   1.431       .  A
C781        C786   1.405       .  A
C781        F788   1.356       .  S
C782        C783   1.431       .  A
C783        C784   1.397       .  A
C783        F790   1.343       .  S
C784        C785   1.395       .  A
C784        F789   1.358       .  S
C785        C786   1.403       .  A
C786        F787   1.358       .  S
C791        C792   1.399       .  A
C791        C796   1.408       .  A
C791        F798   1.359       .  S
C792        C793   1.394       .  A
C793        C794   1.393       .  A
C793        F800   1.359       .  S
C794        C795   1.434       .  A
C794        F799   1.344       .  S
C795        C796   1.444       .  A
C796        F797   1.353       .  S
C801        C802   1.432       .  A
C801        C806   1.406       .  A
C801        F808   1.355       .  S
C802        C803   1.431       .  A
C803        C804   1.396       .  A
C803        F810   1.342       .  S
C804        C805   1.394       .  A
C804        F809   1.359       .  S
C805        C806   1.400       .  A
C806        F807   1.357       .  S
C811        C812   1.434       .  A
C811        C816   1.389       .  A
C811        F818   1.333       .  S
C812        C813   1.443       .  A
C813        C814   1.414       .  A
C813        F820   1.351       .  S
C814        C815   1.399       .  A
C814        F819   1.357       .  S
C815        C816   1.387       .  A
C816        F817   1.360       .  S
C821        C822   1.400       .  A
C821        C826   1.412       .  A
C821        F828   1.358       .  S
C822        C823   1.391       .  A
C823        C824   1.397       .  A
C823        F830   1.359       .  S
C824        C825   1.434       .  A
C824        F829   1.333       .  S
C825        C826   1.445       .  A
C826        F827   1.351       .  S
C831        C832   1.438       .  A
C831        C836   1.409       .  A
C831        F838   1.350       .  S
C832        C833   1.439       .  A
C833        C834   1.397       .  A
C833        F840   1.339       .  S
C834        C835   1.393       .  A
C834        F839   1.360       .  S
C835        C836   1.399       .  A
C836        F837   1.358       .  S
C841        C842   1.409   1_655  A
C841        C846   1.394   1_565  A
C841        F848   1.358       .  S
C842        C843   1.405       .  A
C843        C844   1.393   1_565  A
C843        F850   1.358       .  S
C844        C845   1.406       .  A
C844        F849   1.358       .  S
C845        C846   1.406   1_455  A
C846        F847   1.358       .  S
C851        C852   1.403       .  A
C851        C856   1.404       .  A
C851        F858   1.358       .  S
C852        C853   1.395       .  A
C853        C854   1.395       .  A
C853        F860   1.358       .  S
C854        C855   1.428       .  A
C854        F859   1.343       .  S
C855        C856   1.430       .  A
C856        F857   1.355       .  S
C861        C862   1.398       .  A
C861        C866   1.403       .  A
C861        F868   1.359       .  S
C862        C863   1.398       .  A
C863        C864   1.406       .  A
C863        F870   1.358       .  S
C864        C865   1.444       .  A
C864        F869   1.354       .  S
C865        C866   1.439       .  A
C866        F867   1.341       .  S
C871        C872   1.445       .  A
C871        C876   1.405       .  A
C871        F878   1.354       .  S
C872        C873   1.436       .  A
C873        C874   1.398       .  A
C873        F880   1.339       .  S
C874        C875   1.394       .  A
C874        F879   1.359       .  S
C875        C876   1.398       .  A
C876        F877   1.358       .  S
C881        C882   1.437       .  A
C881        C886   1.396       .  A
C881        F888   1.338       .  S
C882        C883   1.443       .  A
C883        C884   1.408       .  A
C883        F890   1.353       .  S
C884        C885   1.398       .  A
C884        F889   1.358       .  S
C885        C886   1.390       .  A
C886        F887   1.359       .  S
C891        C892   1.393       .  A
C891        C896   1.397       .  A
C891        F898   1.359       .  S
C892        C893   1.391       .  A
C893        C894   1.400       .  A
C893        F900   1.359       .  S
C894        C895   1.449       .  A
C894        F899   1.353       .  S
C895        C896   1.437       .  A
C896        F897   1.339       .  S
C901        C902   1.435       .  A
C901        C906   1.404       .  A
C901        F908   1.356       .  S
C902        C903   1.438       .  A
C903        C904   1.399       .  A
C903        F910   1.351       .  S
C904        C905   1.398       .  A
C904        F909   1.358       .  S
C905        C906   1.401       .  A
C906        F907   1.358       .  S
C911        C912   1.396       .  A
C911        C916   1.397       .  A
C911        F918   1.359       .  S
C912        C913   1.403       .  A
C913        C914   1.408       .  A
C913        F920   1.358       .  S
C914        C915   1.438       .  A
C914        F919   1.357       .  S
C915        C916   1.427       .  A
C916        F917   1.342       .  S
C921        C922   1.407   1_545  A
C921        C926   1.399   1_556  A
C921        F928   1.358       .  S
C922        C923   1.407       .  A
C923        C924   1.393   1_556  A
C923        F930   1.358       .  S
C924        C925   1.405       .  A
C924        F929   1.358       .  S
C925        C926   1.408   1_565  A
C926        F927   1.358       .  S
C931        C932   1.392       .  A
C931        C936   1.392       .  A
C931        F938   1.359       .  S
C932        C933   1.401       .  A
C933        C934   1.411       .  A
C933        F940   1.358       .  S
C934        C935   1.446       .  A
C934        F939   1.352       .  S
C935        C936   1.436       .  A
C936        F937   1.338       .  S
C941        C942   1.396       .  A
C941        C946   1.397       .  A
C941        F948   1.358       .  S
C942        C943   1.393       .  A
C943        C944   1.398       .  A
C943        F950   1.359       .  S
C944        C945   1.442       .  A
C944        F949   1.355       .  S
C945        C946   1.425       .  A
C946        F947   1.345       .  S
C951        C952   1.444       .  A
C951        C956   1.405       .  A
C951        F958   1.353       .  S
C952        C953   1.436       .  A
C953        C954   1.393       .  A
C953        F960   1.338       .  S
C954        C955   1.390       .  A
C954        F959   1.359       .  S
C955        C956   1.397       .  A
C956        F957   1.358       .  S
C961        C962   1.395       .  A
C961        C966   1.393       .  A
C961        F968   1.359       .  S
C962        C963   1.396       .  A
C963        C964   1.403       .  A
C963        F970   1.359       .  S
C964        C965   1.444       .  A
C964        F969   1.353       .  S
C965        C966   1.434       .  A
C966        F967   1.345       .  S
C971        C972   1.405   1_554  A
C971        C976   1.395   1_655  A
C971        F978   1.358       .  S
C972        C973   1.407       .  A
C973        C974   1.389   1_655  A
C973        F980   1.359       .  S
C974        C975   1.401       .  A
C974        F979   1.358       .  S
C975        C976   1.404   1_556  A
C976        F977   1.358       .  S
C981        C982   1.391       .  A
C981        C986   1.398       .  A
C981        F988   1.359       .  S
C982        C983   1.394       .  A
C983        C984   1.394       .  A
C983        F990   1.359       .  S
C984        C985   1.435       .  A
C984        F989   1.339       .  S
C985        C986   1.449       .  A
C986        F987   1.352       .  S
C991        C992   1.402       .  A
C991        C996   1.405       .  A
C991        F998   1.358       .  S
C992        C993   1.397       .  A
C993        C994   1.395       .  A
C993       F1000   1.359       .  S
C994        C995   1.438       .  A
C994        F999   1.352       .  S
C995        C996   1.431       .  A
C996        F997   1.355       .  S
