geometry optimzed in LAMMPS
_audit_creation_date              2020-11-30 
_audit_creation_method            'lammps2cif' 
_symmetry_space_group_name_H-M    'P1' 
_symmetry_Int_Tables_number       1 
_symmetry_cell_setting            triclinic 
loop_ 
_symmetry_equiv_pos_as_xyz 
  x,y,z 
_cell_length_a                    36.97313816 
_cell_length_b                    37.716755668892 
_cell_length_c                    37.94965357988744 
_cell_angle_alpha                 90.04795522135957 
_cell_angle_beta                  90.85934961779796 
_cell_angle_gamma                 90.21014200689625 
loop_ 
_atom_site_label 
_atom_site_type_symbol 
_atom_site_fract_x 
_atom_site_fract_y 
_atom_site_fract_z 
_atom_site_charge 
N1          N  0.23253690  0.13605903  0.03831962    -0.02300
C2          C  0.26529156  0.15161148  0.03463994     0.00300
C3          C  0.27797018  0.14361880  0.00143081    -0.22600
C4          C  0.25140881  0.12362818  0.98425651    -0.22800
C5          C  0.22337864  0.11923380  0.00769517     0.00200
H6          H  0.30379491  0.15122541  0.99081304     0.14000
H7          H  0.25414408  0.10699712  0.46238368     0.14000
N8          N  0.02012886  0.02386280  0.36349207    -0.02300
C9          C  0.02792575  0.02219538  0.39837839     0.00300
C10         C  0.01330091  0.49175332  0.41087633    -0.22600
C11         C  0.49200233  0.47343700  0.38500949    -0.22800
C12         C  0.49511604  0.99517610  0.35612044     0.00200
H13         H  0.01775269  0.48185984  0.43733822     0.14000
H14         H  0.47821666  0.44811784  0.38624473     0.14000
N15         N  0.40725570  0.35252784  0.15345437    -0.02300
C16         C  0.40041263  0.38628314  0.16379738     0.00300
C17         C  0.36694541  0.39667057  0.15098932    -0.22600
C18         C  0.35248880  0.36816496  0.13266290    -0.22800
C19         C  0.37767415  0.34108344  0.13428504     0.00200
H20         H  0.35399874  0.42197082  0.15526714     0.14000
H21         H  0.32597159  0.36709304  0.12022784     0.14000
C22         C  0.13720159  0.28387902  0.26668990     0.81400
N23         N  0.13362738  0.26670367  0.29780768    -0.76900
C24         C  0.15143713  0.23578382  0.30307752     0.83900
N25         N  0.18226943  0.23056848  0.28522209    -0.76800
C26         C  0.18494928  0.24535158  0.25302979     0.84000
N27         N  0.16505419  0.27460126  0.24572663    -0.78500
Fe28       Fe  0.25634752  0.30237361  0.33885875     1.65800
Fe29       Fe  0.18433081  0.32077733  0.38893519     1.73200
Fe30       Fe  0.20321919  0.37245823  0.31881252     1.54400
O31         O  0.25347508  0.39412452  0.32685053    -0.80500
O32         O  0.13646444  0.34119137  0.36324752    -0.78800
O33         O  0.28626930  0.34635146  0.31566513    -0.83000
O34         O  0.23777999  0.29169525  0.28953875    -0.77800
O35         O  0.18100789  0.40254179  0.36215840    -0.79600
O36         O  0.17336591  0.27089214  0.37022015    -0.82300
C37         C  0.23586718  0.31491983  0.26563431     0.98400
C38         C  0.28030971  0.37992679  0.31208915     1.05900
O39         O  0.21464062  0.33191892  0.34886842    -1.11300
O40         O  0.22882411  0.29799510  0.41895853    -0.73800
O41         O  0.27814750  0.30988583  0.38818510    -0.77300
O42         O  0.22349019  0.34617439  0.27218965    -0.77900
C43         C  0.26316191  0.29511494  0.41431683     0.99300
O44         O  0.23000353  0.25533274  0.35934067    -0.75900
O45         O  0.19283499  0.37024876  0.41005151    -0.81100
C46         C  0.12848316  0.35262321  0.33212355     0.99900
C47         C  0.17870494  0.39741385  0.39566718     1.05900
O48         O  0.15212584  0.35407863  0.30834463    -0.76700
C49         C  0.19791738  0.24757858  0.37007826     1.04200
N50         N  0.04709666  0.02526008  0.11347257    -0.02300
C51         C  0.03432084  0.03001056  0.14670260     0.00300
C52         C  0.04378474  0.06378167  0.15789864    -0.22600
C53         C  0.06252336  0.07995702  0.13082402    -0.22800
C54         C  0.06468177  0.05567098  0.10354904     0.00200
H55         H  0.03722756  0.07574522  0.18291656     0.14000
H56         H  0.07307309  0.10675944  0.13098879     0.14000
N57         N  0.15845400  0.20097283  0.40155708    -0.02300
C58         C  0.16484697  0.16989253  0.41863914     0.00300
C59         C  0.20029095  0.16004963  0.41309337    -0.22600
C60         C  0.21619108  0.18646884  0.39308229    -0.22800
C61         C  0.19001191  0.21187123  0.38630590     0.00200
H62         H  0.21337169  0.13633345  0.42269755     0.14000
H63         H  0.24417702  0.18738468  0.38520620     0.14000
N64         N  0.33283735  0.41802029  0.28902459    -0.02300
C65         C  0.30011968  0.40200343  0.28505451     0.00300
C66         C  0.28603590  0.41111498  0.25223511    -0.22600
C67         C  0.31156136  0.43235892  0.23568904    -0.22800
C68         C  0.34043908  0.43643172  0.25903973     0.00200
H69         H  0.26016321  0.40294129  0.24121844     0.14000
H70         H  0.30943382  0.44302761  0.20928054     0.14000
C71         C  0.43490242  0.25388703  0.51283711     0.81400
N72         N  0.44651719  0.27683619  0.04576501    -0.76900
C73         C  0.43127520  0.30812258  0.05465693     0.83900
N74         N  0.39876889  0.31144502  0.53553878    -0.76800
C75         C  0.39019118  0.29676822  0.50401956     0.84000
N76         N  0.40414704  0.26461711  0.49648516    -0.78500
Fe77       Fe  0.06084581  0.05150254  0.99490238     1.65800
Fe78       Fe  0.13046974  0.07248432  0.44333984     1.73200
Fe79       Fe  0.11307043  0.12171553  0.01486634     1.54400
O80         O  0.06246310  0.14307673  0.00776716    -0.80500
O81         O  0.17875174  0.09156230  0.46968927    -0.78800
O82         O  0.03003609  0.09459196  0.01858091    -0.83000
O83         O  0.08054720  0.04002935  0.04438901    -0.77800
O84         O  0.13658843  0.15162642  0.47342829    -0.79600
O85         O  0.14212684  0.02225165  0.45880641    -0.82300
C86         C  0.08101013  0.06374846  0.06805308     0.98400
C87         C  0.03517583  0.12839839  0.02175605     1.05900
O88         O  0.10156531  0.08204282  0.98403921    -1.11300
O89         O  0.08539595  0.05066734  0.41342866    -0.73800
O90         O  0.03763319  0.06089579  0.44666889    -0.77300
O91         O  0.09253269  0.09520668  0.06097861    -0.77900
C92         C  0.05137521  0.04728620  0.41949274     0.97300
O93         O  0.08438937  0.50477005  0.97149262    -0.75900
O94         O  0.12194845  0.12275594  0.42431049    -0.81100
C95         C  0.18716909  0.10292275  0.99927314     0.99900
C96         C  0.13818841  0.14825200  0.43968758     1.05900
O97         O  0.16383249  0.10199542  0.02344644    -0.76700
C98         C  0.11597253  0.49978400  0.45691570     1.04200
N99         N  0.97758149  0.15463604  0.05037009    -0.02300
C100        C  0.01405279  0.15093753  0.04746190     0.00300
C101        C  0.03073905  0.17353186  0.07165786    -0.22600
C102        C  0.00386749  0.19141325  0.08954024    -0.22800
C103        C  0.47368802  0.18229459  0.07491235     0.00200
H104        H  0.05957835  0.17694665  0.07571473     0.14000
H105        H  0.00790886  0.21153798  0.10956734     0.14000
N106        N  0.27876245  0.28466305  0.22208120    -0.02300
C107        C  0.27800746  0.27761812  0.18669835     0.00300
C108        C  0.24772907  0.29405117  0.17207237    -0.22600
C109        C  0.22972289  0.31127694  0.19880857    -0.22800
C110        C  0.24872485  0.30458696  0.22960140     0.00200
H111        H  0.23927529  0.29332651  0.14465560     0.14000
H112        H  0.20456442  0.32568908  0.19621136     0.14000
N113        N  0.15119747  0.45531185  0.41964832    -0.02300
C114        C  0.15397718  0.41942467  0.41814277     0.00300
C115        C  0.12824835  0.40469477  0.44000242    -0.22600
C116        C  0.10934172  0.43234847  0.45513443    -0.22800
C117        C  0.12490354  0.46341719  0.44342378     0.00200
H118        H  0.12332025  0.37671813  0.44415365     0.14000
H119        H  0.08767495  0.42991732  0.47385256     0.14000
C120        C  0.39244716  0.09930521  0.31118298     0.81400
N121        N  0.36237197  0.08713822  0.29399201    -0.76900
C122        C  0.34421148  0.05846623  0.30602770     0.83900
N123        N  0.35702920  0.04125072  0.33497430    -0.76800
C124        C  0.38614683  0.05371687  0.35316937     0.84000
N125        N  0.40440432  0.08215551  0.34048551    -0.78500
Fe126      Fe  0.36280864  0.17932291  0.07031162     1.65800
Fe127      Fe  0.31141751  0.25010720  0.08821890     1.73200
Fe128      Fe  0.38301383  0.23101733  0.14071159     1.54400
O129        O  0.37414514  0.18171154  0.16126298    -0.80500
O130        O  0.33792372  0.29641336  0.10935969    -0.78800
O131        O  0.38592802  0.14935523  0.11391564    -0.83000
O132        O  0.41331276  0.19725444  0.06049012    -0.77800
O133        O  0.33794079  0.25345148  0.17019092    -0.79600
O134        O  0.33055122  0.26135129  0.03904916    -0.82300
C135        C  0.43761901  0.19786801  0.08421213     0.98400
C136        C  0.38901122  0.15500595  0.14735577     1.05900
O137        O  0.35260631  0.22027229  0.09967165    -1.11300
O138        O  0.28106150  0.20684276  0.06431300    -0.73800
O139        O  0.31228861  0.15842185  0.07764900    -0.77300
O140        O  0.43091054  0.20997219  0.11534260    -0.77900
C141        C  0.28584069  0.17309107  0.06189635     0.97300
O142        O  0.34248526  0.20581690  0.02354449    -0.75900
O143        O  0.28953072  0.24129307  0.13690659    -0.81100
C144        C  0.36998797  0.30439273  0.12067816     0.99900
C145        C  0.30337939  0.25511707  0.16458884     1.05900
O146        O  0.39445724  0.28107776  0.12295308    -0.76700
C147        C  0.33176106  0.23743386  0.01566730     1.04200
N148        N  0.41381313  0.09944672  0.17799069    -0.02300
C149        C  0.41537239  0.13432902  0.17000875     0.00300
C150        C  0.44518886  0.14891695  0.18739366    -0.22600
C151        C  0.46199415  0.12177324  0.20629410    -0.22800
C152        C  0.44147239  0.09147125  0.20066072     0.00200
H153        H  0.45387612  0.17632676  0.18647403     0.14000
H154        H  0.48607225  0.12415661  0.22269903     0.14000
N155        N  0.08307290  0.39024841  0.29729558    -0.02300
C156        C  0.04726032  0.39749601  0.29874732     0.00300
C157        C  0.03279743  0.37951123  0.32710462    -0.22600
C158        C  0.06088773  0.36110727  0.34343603    -0.22800
C159        C  0.09165320  0.36741313  0.32401686     0.00200
H160        H  0.50342475  0.37953782  0.33214983     0.14000
H161        H  0.05879462  0.34430311  0.36642011     0.14000
N162        N  0.29461339  0.27368828  0.47121913    -0.02300
C163        C  0.28564764  0.26997362  0.43656601     0.00300
C164        C  0.30086064  0.23904698  0.42402589    -0.22600
C165        C  0.31889758  0.22307962  0.45212083    -0.22800
C166        C  0.31497385  0.24495362  0.48112712     0.00200
H167        H  0.29874257  0.22889105  0.39740073     0.14000
H168        H  0.33317007  0.19809706  0.45139209     0.14000
C169        C  0.14456899  0.50689687  0.07604712     0.81400
N170        N  0.14734400  0.48742374  0.04608016    -0.76900
C171        C  0.17419899  0.49431940  0.02293816     0.83900
N172        N  0.19351031  0.52463969  0.02725089    -0.76800
C173        C  0.19665048  0.03822229  0.05616640     0.84000
N174        N  0.16396893  0.53725849  0.07876987    -0.78500
Fe175      Fe  0.44992830  0.43176634  0.26429017     1.65800
Fe176      Fe  0.50488722  0.99916466  0.24670309     1.73200
Fe177      Fe  0.43182038  0.48562774  0.19595864     1.54400
O178        O  0.43700541  0.43733048  0.17220325    -0.80500
O179        O  0.48084884  0.04692148  0.22656513    -0.78800
O180        O  0.42696756  0.40384629  0.21975196    -0.83000
O181        O  0.40056826  0.45342097  0.27435780    -0.77800
O182        O  0.47712155  0.00345962  0.16519839    -0.79600
O183        O  0.48546103  0.01005720  0.29594883    -0.82300
C184        C  0.37618687  0.45363293  0.25077795     0.98400
C185        C  0.42407343  0.40955665  0.18635609     1.05900
O186        O  0.46331973  0.47169772  0.23488037    -1.11300
O187        O  0.03291438  0.45325490  0.26879571    -0.73800
O188        O  0.49923828  0.40844136  0.25771610    -0.77300
O189        O  0.38338304  0.46490329  0.21969303    -0.77900
C190        C  0.02550921  0.42004943  0.27331314     0.97300
O191        O  0.47058342  0.45536736  0.31153982    -0.75900
O192        O  0.52684320  0.99204629  0.19713393    -0.81100
C193        C  0.44905050  0.05527858  0.21527863     0.99900
C194        C  0.51172489  0.00567446  0.16988462     1.05900
O195        O  0.42382275  0.03245241  0.21369164    -0.76700
C196        C  0.48173998  0.98680423  0.31973689     1.04200
C197        C  0.27931778  0.36842911  0.48718676    -0.27000
C198        C  0.25388860  0.36742021  0.51395275     0.06600
C199        C  0.24631230  0.33504546  0.53085768     0.26200
C200        C  0.26264524  0.30381505  0.51907670    -0.11500
C201        C  0.28648397  0.30505136  0.49067621    -0.25400
C202        C  0.29536634  0.33787012  0.47577911     0.37000
C203        C  0.24026526  0.40480326  0.00617391     0.06600
F204        F  0.23905079  0.34634529  0.05521594    -0.19200
H205        H  0.25472855  0.27856656  0.53018380     0.16500
F206        F  0.31525137  0.33997576  0.44634985    -0.22900
H207        H  0.28448624  0.39254158  0.47256514     0.18200
C208        C  0.25411951  0.43900808  0.00074164     0.26200
C209        C  0.23111961  0.46795882  0.00130482    -0.11500
C210        C  0.19425789  0.46363176  0.00916278    -0.25500
C211        C  0.18012280  0.42906241  0.01191722     0.37200
C212        C  0.20296043  0.40000219  0.01008547    -0.27100
F213        F  0.29003466  0.44465345  0.99606295    -0.19200
H214        H  0.24296641  0.49397265  0.99795470     0.16400
F215        F  0.14472317  0.42318532  0.01877316    -0.22900
H216        H  0.18070215  0.37335961  0.51797535     0.18300
C217        C  0.14069781  0.44568219  0.24052389    -0.27000
C218        C  0.12755094  0.43447314  0.20738775     0.06600
C219        C  0.10463891  0.40478819  0.20490914     0.26200
C220        C  0.09358444  0.38787113  0.23509374    -0.11500
C221        C  0.10450254  0.40029412  0.26816566    -0.25400
C222        C  0.12907377  0.42858781  0.27103297     0.37000
C223        C  0.13526607  0.45438072  0.17522371     0.06600
F224        F  0.09012638  0.39416271  0.17355756    -0.19200
H225        H  0.07319114  0.36738576  0.23298902     0.16500
F226        F  0.13920927  0.44132900  0.30314364    -0.22900
H227        H  0.15861622  0.46839298  0.24276167     0.18200
C228        C  0.12768354  0.49073647  0.17249989     0.26200
C229        C  0.12998415  0.50754759  0.13987581    -0.11500
C230        C  0.13829918  0.48811112  0.10942556    -0.25500
C231        C  0.14703900  0.45191490  0.11287651     0.37200
C232        C  0.14598842  0.43558790  0.14546692    -0.27100
F233        F  0.11682891  0.50961357  0.20089229    -0.19200
H234        H  0.12555113  0.53582817  0.13843872     0.16400
F235        F  0.15833456  0.43224801  0.08539973    -0.22900
H236        H  0.15275239  0.40770377  0.14736712     0.18300
C237        C  0.32513174  0.05852161  0.16001076    -0.27000
C238        C  0.33180310  0.04083012  0.12810039     0.06600
C239        C  0.36733310  0.03858943  0.11565123     0.26200
C240        C  0.39515989  0.05621815  0.13364019    -0.11500
C241        C  0.38753384  0.07573701  0.16397551    -0.25400
C242        C  0.35292589  0.07573579  0.17793718     0.37000
C243        C  0.30055984  0.03065416  0.10600598     0.06600
F244        F  0.37470784  0.02102421  0.08537984    -0.19200
H245        H  0.42220073  0.05634769  0.12306300     0.16500
F246        F  0.34573721  0.09462696  0.20746097    -0.22900
H247        H  0.29792637  0.06136509  0.16978236     0.18200
C248        C  0.27016833  0.01574961  0.12188995     0.26200
C249        C  0.23661184  0.01862623  0.10555289    -0.11500
C250        C  0.23298256  0.03460564  0.07218504    -0.25500
C251        C  0.26431575  0.04387652  0.05384685     0.37200
C252        C  0.29786251  0.04303278  0.07113154    -0.27100
F253        F  0.27255196  0.00082224  0.15441019    -0.19200
H254        H  0.21350420  0.00862342  0.11951369     0.16400
F255        F  0.26240749  0.05489836  0.01993254    -0.22900
H256        H  0.32109503  0.05424230  0.05808802     0.18300
C257        C  0.25132346  0.51876940  0.29762637    -0.27000
C258        C  0.23330319  0.53782330  0.32383242     0.06600
C259        C  0.25132300  0.07069938  0.33375002     0.26200
C260        C  0.28415579  0.08121382  0.31922950    -0.11500
C261        C  0.30503141  0.05658416  0.30069000    -0.25400
C262        C  0.28969278  0.02405828  0.29086529     0.37000
C263        C  0.21058944  0.51813664  0.34858230     0.06600
F264        F  0.23453040  0.09263233  0.35663789    -0.19200
H265        H  0.29577995  0.10645956  0.32717850     0.16500
F266        F  0.30443631  0.50945776  0.26422407    -0.22900
H267        H  0.24150114  0.49286880  0.28952119     0.18200
C268        C  0.17273023  0.51695600  0.34564352     0.26200
C269        C  0.15286053  0.49753195  0.37027428    -0.11500
C270        C  0.17076574  0.47922435  0.39765151    -0.25500
C271        C  0.20846689  0.48100648  0.40069740     0.37200
C272        C  0.22817992  0.50037656  0.37638286    -0.27100
F273        F  0.15527764  0.53384759  0.31883244    -0.19200
H274        H  0.12372014  0.49570148  0.36743551     0.16400
F275        F  0.22609888  0.46337071  0.42690012    -0.22900
H276        H  0.26300547  0.99756288  0.38336809     0.18300
C277        C  0.36904530  0.26433138  0.26219801    -0.27000
C278        C  0.35989325  0.23632616  0.28475945     0.06600
C279        C  0.32322822  0.22881896  0.29082795     0.26200
C280        C  0.29645719  0.24605960  0.27140253    -0.11500
C281        C  0.30557588  0.27203433  0.24670964    -0.25400
C282        C  0.34188490  0.28255522  0.24367696     0.37000
C283        C  0.38624672  0.20833354  0.29322710     0.06600
F284        F  0.31343022  0.20154714  0.31206432    -0.19200
H285        H  0.26882674  0.23720171  0.27406423     0.16500
F286        F  0.35108640  0.30855489  0.22076375    -0.22900
H287        H  0.39715925  0.27017785  0.25694576     0.18200
C288        C  0.39624624  0.18592397  0.26550315     0.26200
C289        C  0.40285868  0.15020992  0.27209478    -0.11500
C290        C  0.40145495  0.13693461  0.30642601    -0.25500
C291        C  0.39787675  0.16073490  0.33479339     0.37200
C292        C  0.38996119  0.19635124  0.32808484    -0.27100
F293        F  0.39291554  0.19692372  0.23159476    -0.19200
H294        H  0.40448361  0.13213197  0.25012576     0.16400
F295        F  0.39590536  0.14869843  0.36842415    -0.22900
H296        H  0.38204927  0.21325958  0.34972016     0.18300
C297        C  0.42831315  0.07385653  0.52165195    -0.27000
C298        C  0.40817471  0.08712072  0.49293563     0.06600
C299        C  0.40609994  0.12396907  0.48773503     0.26200
C300        C  0.93206796  0.14926592  0.50390098    -0.11500
C301        C  0.45276866  0.13446386  0.03313741    -0.25400
C302        C  0.45003514  0.09831939  0.04150209     0.37000
C303        C  0.39913925  0.06405242  0.46275570     0.06600
F304        F  0.89614620  0.14254065  0.45228999    -0.19200
H305        H  0.93480637  0.17691924  0.49788204     0.16500
F306        F  0.46858098  0.08506257  0.06962465    -0.22900
H307        H  0.43036652  0.04552816  0.52587124     0.18200
C308        C  0.42792280  0.05135704  0.44262098     0.26200
C309        C  0.42253925  0.04355939  0.40706727    -0.11500
C310        C  0.38843424  0.04767204  0.39135227    -0.25500
C311        C  0.35855134  0.05549769  0.41263581     0.37200
C312        C  0.36404190  0.06395367  0.44821962    -0.27100
F313        F  0.46218888  0.05186379  0.45585839    -0.19200
H314        H  0.44561755  0.03781279  0.39098882     0.16400
F315        F  0.32505717  0.05987287  0.39815704    -0.22900
H316        H  0.34165961  0.07405565  0.46331857     0.18300
C317        C  0.39831066  0.37954304  0.35179643    -0.27000
C318        C  0.38095997  0.38793853  0.38333507     0.06600
C319        C  0.35336946  0.41352735  0.38339321     0.26200
C320        C  0.34075946  0.42732170  0.35168225    -0.11500
C321        C  0.35457262  0.41479126  0.31997552    -0.25400
C322        C  0.38446074  0.39214210  0.32000198     0.37000
C323        C  0.38596175  0.36487420  0.41402173     0.06600
F324        F  0.33529703  0.42152566  0.41324231    -0.19200
H325        H  0.31735078  0.44453104  0.35148793     0.16500
F326        F  0.39722549  0.37899696  0.28932542    -0.22900
H327        H  0.41990369  0.36020637  0.35150608     0.18200
C328        C  0.38212501  0.32796910  0.41013018     0.26200
C329        C  0.38189919  0.30629516  0.43967297    -0.11500
C330        C  0.38493566  0.32085943  0.47370716    -0.25500
C331        C  0.38786883  0.35808165  0.47733397     0.37200
C332        C  0.38915130  0.37962816  0.44770156    -0.27100
F333        F  0.37616821  0.31299790  0.37798810    -0.19200
H334        H  0.37842878  0.27808432  0.43583225     0.16400
F335        F  0.38882161  0.37413564  0.50920110    -0.22900
H336        H  0.39152131  0.40807318  0.45108866     0.18300
C337        C  0.98813627  0.22916385  0.43521942    -0.27000
C338        C  0.02307990  0.23206704  0.44971506     0.06600
C339        C  0.02765062  0.23510776  0.48639048     0.26200
C340        C  0.99782889  0.23941030  0.50760134    -0.11500
C341        C  0.96284178  0.24042487  0.49293106    -0.25400
C342        C  0.95810722  0.23266493  0.45670908     0.37000
C343        C  0.05505710  0.23116390  0.42722419     0.06600
F344        F  0.06107549  0.23486866  0.50173835    -0.19200
H345        H  0.99849897  0.23942663  0.03833751     0.16500
F346        F  0.42264679  0.22834899  0.44072233    -0.22900
H347        H  0.98405469  0.22546624  0.40713960     0.18200
C348        C  0.05983027  0.20326087  0.40337754     0.26200
C349        C  0.09393465  0.19710970  0.38984157    -0.11500
C350        C  0.12377331  0.21742636  0.40128152    -0.25500
C351        C  0.11821919  0.24741585  0.42220322     0.37200
C352        C  0.08366279  0.25497190  0.43399089    -0.27100
F353        F  0.03317890  0.17910195  0.39719344    -0.19200
H354        H  0.09812643  0.17322443  0.37473995     0.16400
F355        F  0.14671123  0.26600067  0.43567264    -0.22900
H356        H  0.08013395  0.27707800  0.45183996     0.18300
C357        C  0.00098120  0.46269008  0.05097826    -0.27000
C358        C  0.01135844  0.43045511  0.06644260     0.06600
C359        C  0.03823849  0.42993050  0.09291508     0.26200
C360        C  0.05147271  0.46160577  0.10640108    -0.11500
C361        C  0.03884732  0.49389403  0.09313279    -0.25400
C362        C  0.02163184  0.99233275  0.06302806     0.37000
C363        C  0.49909617  0.39888995  0.06558780     0.06600
F364        F  0.04839620  0.39914199  0.10864127    -0.19200
H365        H  0.06916988  0.46104815  0.12929693     0.16500
F366        F  0.00776540  0.02258369  0.04914995    -0.22900
H367        H  0.98021062  0.46330223  0.03054180     0.18200
C368        C  0.46137607  0.40180748  0.06826383     0.26200
C369        C  0.44003802  0.37154257  0.06876243    -0.11500
C370        C  0.45542126  0.33782130  0.06483117    -0.25500
C371        C  0.98597070  0.33511262  0.05386827     0.37200
C372        C  0.00594345  0.36637180  0.05368107    -0.27100
F373        F  0.44536108  0.43372444  0.07337711    -0.19200
H374        H  0.41115932  0.37462094  0.07166279     0.16400
F375        F  0.00340747  0.30476337  0.04582533    -0.22900
H376        H  0.03464610  0.36533731  0.04840233     0.18300
C377        C  0.50605163  0.33992320  0.16689447    -0.27000
C378        C  0.50688429  0.31029136  0.18876243     0.06600
C379        C  0.47456808  0.29186051  0.19573818     0.26200
C380        C  0.44165050  0.30416361  0.18179747    -0.11500
C381        C  0.44082824  0.33489830  0.16102730    -0.25400
C382        C  0.47350622  0.35238862  0.15365316     0.37000
C383        C  0.03790396  0.30226286  0.21118933     0.06600
F384        F  0.47469594  0.26307867  0.21717861    -0.19200
H385        H  0.41670918  0.29114054  0.18902310     0.16500
F386        F  0.47374200  0.38392546  0.13693808    -0.22900
H387        H  0.02671623  0.35337894  0.16395754     0.18200
C388        C  0.07089636  0.30254550  0.19331071     0.26200
C389        C  0.10335751  0.30021588  0.21202898    -0.11500
C390        C  0.10370679  0.29633897  0.24891097    -0.25500
C391        C  0.07053575  0.29746988  0.26685028     0.37200
C392        C  0.03804710  0.30045159  0.24805085    -0.27100
F393        F  0.07176164  0.30461776  0.15760617    -0.19200
H394        H  0.12815128  0.29971588  0.19721235     0.16400
F395        F  0.06911703  0.29419655  0.30239719    -0.22900
H396        H  0.01296492  0.30174611  0.26238012     0.18300
C397        C  0.12437117  0.13999864  0.31354543    -0.27000
C398        C  0.08740536  0.14151819  0.30466285     0.06600
C399        C  0.07168761  0.17413860  0.29597716     0.26200
C400        C  0.09207204  0.20493714  0.29834427    -0.11500
C401        C  0.12905211  0.20380641  0.30763933    -0.25400
C402        C  0.14524068  0.17076176  0.31435310     0.37000
C403        C  0.06440687  0.11054597  0.31109473     0.06600
F404        F  0.03645207  0.17625906  0.28554127    -0.19200
H405        H  0.07892074  0.22940180  0.29123377     0.16500
F406        F  0.18119543  0.16811039  0.32146133    -0.22900
H407        H  0.13689889  0.11517707  0.32109497     0.18200
C408        C  0.07558087  0.07618509  0.30192097     0.26200
C409        C  0.05909928  0.04691855  0.31741549    -0.11500
C410        C  0.03118929  0.05206482  0.34136453    -0.25500
C411        C  0.01765922  0.08595645  0.34758733     0.37200
C412        C  0.03419496  0.11504353  0.33255578    -0.27100
F413        F  0.10371321  0.07115630  0.27989919    -0.19200
H414        H  0.06938649  0.02053768  0.31255114     0.16400
F415        F  0.48505145  0.08923088  0.36983251    -0.22900
H416        H  0.02527361  0.14117214  0.34026922     0.18300
C417        C  0.17212165  0.16484463  0.10872564    -0.27000
C418        C  0.19051967  0.15013720  0.13783343     0.06600
C419        C  0.21675120  0.12400811  0.13287380     0.26200
C420        C  0.22890368  0.11748801  0.09918925    -0.11500
C421        C  0.21351842  0.13537331  0.07044013    -0.25400
C422        C  0.18383360  0.15761939  0.07492159     0.37000
C423        C  0.18974478  0.16956801  0.17097442     0.06600
F424        F  0.23400256  0.10872631  0.16078499    -0.19200
H425        H  0.25261025  0.10132444  0.09587318     0.16500
F426        F  0.16936186  0.17555146  0.04714436    -0.22900
H427        H  0.15185992  0.18515057  0.11225921     0.18200
C428        C  0.22188803  0.18512674  0.18423877     0.26200
C429        C  0.22044275  0.20963025  0.21143328    -0.11500
C430        C  0.18712674  0.21980941  0.22457375    -0.25500
C431        C  0.15507746  0.20371112  0.21191143     0.37200
C432        C  0.15649229  0.17849628  0.18540119    -0.27100
F433        F  0.25434691  0.17857297  0.16931390    -0.19200
H434        H  0.24517075  0.22130205  0.22129441     0.16400
F435        F  0.12235640  0.21282954  0.22475995    -0.22900
H436        H  0.13157877  0.16710972  0.17498982     0.18300
N437        N  0.23138077  0.13407576  0.54100348    -0.02300
C438        C  0.26476095  0.14835035  0.53794839     0.00300
C439        C  0.27861045  0.13849612  0.50568400    -0.22600
C440        C  0.25222236  0.11831918  0.48847606    -0.22800
C441        C  0.22308167  0.11594320  0.51088532     0.00200
H442        H  0.30487454  0.14544882  0.49550121     0.14000
H443        H  0.25269888  0.11338010  0.95769563     0.14000
N444        N  0.01905503  0.02447207  0.86414050    -0.02300
C445        C  0.02882954  0.02168906  0.89846131     0.00300
C446        C  0.00890446  0.49131939  0.91028653    -0.22600
C447        C  0.48949216  0.47463092  0.88518604    -0.22800
C448        C  0.49700866  0.99533765  0.85466170     0.00200
H449        H  0.01122602  0.48192461  0.93715663     0.14000
H450        H  0.47334781  0.45069838  0.88668365     0.14000
N451        N  0.40331887  0.35079137  0.65561847    -0.02300
C452        C  0.39703663  0.38465688  0.66578966     0.00300
C453        C  0.36432203  0.39574044  0.65164760    -0.22600
C454        C  0.34984995  0.36740969  0.63287987    -0.22800
C455        C  0.37441946  0.33985990  0.63541285     0.00200
H456        H  0.35204411  0.42150185  0.65494588     0.14000
H457        H  0.32391602  0.36689519  0.61927807     0.14000
C458        C  0.13388082  0.28849647  0.76828795     0.81400
N459        N  0.13013538  0.27054173  0.79889315    -0.76900
C460        C  0.14739090  0.23923023  0.80327405     0.83900
N461        N  0.17750718  0.23341278  0.78448262    -0.76800
C462        C  0.18083637  0.24991230  0.75321849     0.84000
N463        N  0.16224151  0.28027185  0.74759642    -0.78500
Fe464      Fe  0.25546424  0.30115503  0.83780257     1.65800
Fe465      Fe  0.18393673  0.32073108  0.88833460     1.73200
Fe466      Fe  0.20523208  0.37370452  0.81971848     1.54400
O467        O  0.25663423  0.39295420  0.82897338    -0.80500
O468        O  0.13681689  0.34291326  0.86286173    -0.78800
O469        O  0.28712271  0.34428480  0.81593274    -0.83000
O470        O  0.23683740  0.29223890  0.78831772    -0.77800
O471        O  0.18350990  0.40326258  0.86355711    -0.79600
O472        O  0.17173077  0.27148274  0.86909163    -0.82300
C473        C  0.23613538  0.31626221  0.76517391     0.98400
C474        C  0.28291314  0.37815310  0.81377722     1.05900
O475        O  0.21464830  0.33175464  0.84846366    -1.11300
O476        O  0.22756159  0.29634814  0.91793348    -0.73800
O477        O  0.27716154  0.30692665  0.88706941    -0.77300
O478        O  0.22483802  0.34777470  0.77249990    -0.77900
C479        C  0.26176606  0.29269064  0.91322028     0.99300
O480        O  0.22782831  0.25477772  0.85711194    -0.75900
O481        O  0.19384195  0.36931923  0.91050662    -0.81100
C482        C  0.12924649  0.35587223  0.83224165     0.99900
C483        C  0.18023494  0.39698600  0.89676259     1.05900
O484        O  0.15311460  0.35813783  0.80860875    -0.76700
C485        C  0.19582521  0.24772206  0.86828992     1.04200
N486        N  0.04579291  0.02563805  0.61524781    -0.02300
C487        C  0.03244669  0.03133955  0.64805854     0.00300
C488        C  0.04134608  0.06551997  0.65834693    -0.22600
C489        C  0.06026832  0.08103494  0.63101011    -0.22800
C490        C  0.06299434  0.05598059  0.60445553     0.00200
H491        H  0.03432913  0.07816378  0.68288969     0.14000
H492        H  0.07034149  0.10800285  0.63042234     0.14000
N493        N  0.15723210  0.20260228  0.90201434    -0.02300
C494        C  0.16331987  0.17072147  0.91752564     0.00300
C495        C  0.19746041  0.15919882  0.90874295    -0.22600
C496        C  0.21299228  0.18540417  0.88825837    -0.22800
C497        C  0.18772891  0.21220609  0.88434822     0.00200
H498        H  0.20974774  0.13431795  0.91612931     0.14000
H499        H  0.23998227  0.18495421  0.87768072     0.14000
N500        N  0.33420321  0.41838395  0.79099062    -0.02300
C501        C  0.30297986  0.39960814  0.78656623     0.00300
C502        C  0.29023931  0.40487529  0.75245038    -0.22600
C503        C  0.31479194  0.42669484  0.73557810    -0.22800
C504        C  0.34188591  0.43480109  0.75982880     0.00200
H505        H  0.26579249  0.39394953  0.74077257     0.14000
H506        H  0.31323988  0.43516163  0.70837290     0.14000
C507        C  0.43573294  0.25948967  0.01600513     0.81400
N508        N  0.44609911  0.27149523  0.54236249    -0.76900
C509        C  0.42995596  0.30208817  0.55221332     0.83900
N510        N  0.40003045  0.31751852  0.03818168    -0.76800
C511        C  0.39186295  0.30340859  0.00635368     0.84000
N512        N  0.40612137  0.27141464  0.99838256    -0.78500
Fe513      Fe  0.05970193  0.05130771  0.49529419     1.65800
Fe514      Fe  0.13044721  0.07381963  0.94199626     1.73200
Fe515      Fe  0.11263769  0.12096114  0.51551055     1.54400
O516        O  0.06254880  0.14290558  0.50721473    -0.80500
O517        O  0.17883161  0.09362761  0.96751228    -0.78800
O518        O  0.02930596  0.09510497  0.51850738    -0.83000
O519        O  0.07828682  0.03964946  0.54522772    -0.77800
O520        O  0.13575168  0.15290206  0.97263795    -0.79600
O521        O  0.14311189  0.02354248  0.95654175    -0.82300
C522        C  0.07910898  0.06356058  0.56873671     0.98400
C523        C  0.03497968  0.12889038  0.52129986     1.05900
O524        O  0.10104238  0.08129416  0.48483464    -1.11300
O525        O  0.08548109  0.05145034  0.91276096    -0.73800
O526        O  0.03794417  0.06070270  0.94659187    -0.77300
O527        O  0.09100607  0.09486222  0.56142716    -0.77900
C528        C  0.05169547  0.04732364  0.91931136     0.97300
O529        O  0.08477762  0.50673452  0.47038305    -0.75900
O530        O  0.12045080  0.12392725  0.92377370    -0.81100
C531        C  0.18665598  0.10069931  0.50161194     0.99900
C532        C  0.13691939  0.14937708  0.93891786     1.05900
O533        O  0.16280307  0.10059666  0.52527060    -0.76700
C534        C  0.11568348  0.49821706  0.95803002     1.04200
N535        N  0.97782040  0.15552391  0.55053598    -0.02300
C536        C  0.01422447  0.15224450  0.54661661     0.00300
C537        C  0.03126007  0.17630295  0.56915590    -0.22600
C538        C  0.00469352  0.19468490  0.58696010    -0.22800
C539        C  0.47189020  0.18279573  0.57399170     0.00200
H540        H  0.06013144  0.18045920  0.57204927     0.14000
H541        H  0.00900451  0.21596608  0.60571721     0.14000
N542        N  0.27947002  0.28630148  0.72226244    -0.02300
C543        C  0.27814730  0.27755805  0.68736024     0.00300
C544        C  0.24773302  0.29328441  0.67227856    -0.22600
C545        C  0.23002284  0.31167675  0.69845491    -0.22800
C546        C  0.24947451  0.30640847  0.72928867     0.00200
H547        H  0.23878984  0.29097259  0.64508567     0.14000
H548        H  0.20450905  0.32543234  0.69562626     0.14000
N549        N  0.15302717  0.45426315  0.92210956    -0.02300
C550        C  0.15512481  0.41842728  0.91934525     0.00300
C551        C  0.12794546  0.40335889  0.93924414    -0.22600
C552        C  0.10877143  0.43078792  0.95449648    -0.22800
C553        C  0.12539906  0.46200545  0.94459570     0.00200
H554        H  0.12214857  0.37534703  0.94186151     0.14000
H555        H  0.08603982  0.42806797  0.97194079     0.14000
C556        C  0.39417948  0.10046900  0.81027864     0.81400
N557        N  0.36381338  0.08869516  0.79326102    -0.76900
C558        C  0.34613866  0.05939583  0.80454652     0.83900
N559        N  0.35966943  0.04133539  0.83265752    -0.76800
C560        C  0.38863270  0.05377401  0.85113679     0.84000
N561        N  0.40647382  0.08277216  0.83912829    -0.78500
Fe562      Fe  0.36125334  0.17831944  0.57175181     1.65800
Fe563      Fe  0.30889153  0.24782592  0.59077329     1.73200
Fe564      Fe  0.38208576  0.23034980  0.64157908     1.54400
O565        O  0.37370294  0.18113593  0.66251603    -0.80500
O566        O  0.33499615  0.29465220  0.61117294    -0.78800
O567        O  0.38516662  0.14884871  0.61498477    -0.83000
O568        O  0.41109680  0.19708631  0.56113800    -0.77800
O569        O  0.33767837  0.25280782  0.67160531    -0.79600
O570        O  0.32623100  0.25970169  0.54132922    -0.82300
C571        C  0.43589458  0.19773670  0.58430546     0.98400
C572        C  0.38819729  0.15436423  0.64840486     1.05900
O573        O  0.35107281  0.21908556  0.60112760    -1.11300
O574        O  0.27897155  0.20404992  0.56742426    -0.73800
O575        O  0.31161518  0.15658794  0.58045492    -0.77300
O576        O  0.42975048  0.20957331  0.61562861    -0.77900
C577        C  0.28470233  0.17048313  0.56494554     0.97300
O578        O  0.33987843  0.20462812  0.52521723    -0.75900
O579        O  0.28902248  0.23807315  0.63994281    -0.81100
C580        C  0.36720064  0.30321708  0.62160386     0.99900
C581        C  0.30306836  0.25365877  0.66652319     1.05900
O582        O  0.39227861  0.28039896  0.62315047    -0.76700
C583        C  0.32845874  0.23612415  0.51770458     1.04200
N584        N  0.41078182  0.09969036  0.68159275    -0.02300
C585        C  0.41447332  0.13357527  0.67064010     0.00300
C586        C  0.44678283  0.14705863  0.68404147    -0.22600
C587        C  0.46330521  0.12014648  0.70330656    -0.22800
C588        C  0.44023277  0.09118496  0.70175570     0.00200
H589        H  0.45741481  0.17348940  0.68001640     0.14000
H590        H  0.48922125  0.12165524  0.71685977     0.14000
N591        N  0.08325455  0.39243395  0.79699687    -0.02300
C592        C  0.04727243  0.39882542  0.79783032     0.00300
C593        C  0.03316550  0.38205169  0.82706202    -0.22600
C594        C  0.06166640  0.36496767  0.84424857    -0.22800
C595        C  0.09232334  0.37080843  0.82446936     0.00200
H596        H  0.50573523  0.38006077  0.83627613     0.14000
H597        H  0.05986808  0.34912920  0.86792306     0.14000
N598        N  0.29777347  0.27465343  0.96857643    -0.02300
C599        C  0.28391380  0.26787505  0.93588281     0.00300
C600        C  0.29519591  0.23480557  0.92501800    -0.22600
C601        C  0.31564222  0.22052043  0.95234565    -0.22800
C602        C  0.31683364  0.24531160  0.97932120     0.00200
H603        H  0.28924938  0.22233548  0.89992031     0.14000
H604        H  0.32791242  0.19454125  0.95252938     0.14000
C605        C  0.14791195  0.51301743  0.57965689     0.81400
N606        N  0.14681338  0.49306080  0.54981562    -0.76900
C607        C  0.17367762  0.49611740  0.52598250     0.83900
N608        N  0.19452976  0.52572086  0.52738197    -0.76800
C609        C  0.18691971  0.03715232  0.56265075     0.84000
N610        N  0.17054520  0.54127997  0.58100473    -0.78500
Fe611      Fe  0.44842553  0.43157334  0.76540893     1.65800
Fe612      Fe  0.50465019  0.99911815  0.74547757     1.73200
Fe613      Fe  0.43176517  0.48357612  0.69525522     1.54400
O614        O  0.43583886  0.43440386  0.67312458    -0.80500
O615        O  0.48020488  0.04681073  0.72615853    -0.78800
O616        O  0.42416747  0.40293821  0.72159410    -0.83000
O617        O  0.40056143  0.45619631  0.77470005    -0.77800
O618        O  0.47466741  0.00582735  0.66557209    -0.79600
O619        O  0.48637646  0.01033353  0.79482055    -0.82300
C620        C  0.37627633  0.45419376  0.75126164     0.98400
C621        C  0.42149997  0.40771562  0.68798615     1.05900
O622        O  0.46300738  0.47013687  0.73471503    -1.11300
O623        O  0.03256681  0.45396955  0.76757214    -0.73800
O624        O  0.49681135  0.40599173  0.76019038    -0.77300
O625        O  0.38312794  0.46431505  0.71972771    -0.77900
C626        C  0.02549009  0.42072364  0.77190378     0.97300
O627        O  0.46993632  0.45565457  0.81181689    -0.75900
O628        O  0.52502557  0.99188993  0.69537518    -0.81100
C629        C  0.44788450  0.05538098  0.71674484     0.99900
C630        C  0.50939947  0.00699014  0.66920088     1.05900
O631        O  0.42248085  0.03277711  0.71664107    -0.76700
C632        C  0.48277275  0.98712544  0.81856253     1.04200
C633        C  0.28592597  0.37114153  0.97440831    -0.27000
C634        C  0.26358734  0.37361368  0.00350329     0.06600
C635        C  0.25942312  0.34411372  0.02585153     0.26200
C636        C  0.27395499  0.31138883  0.01633382    -0.11500
C637        C  0.29375005  0.30841384  0.98531019    -0.25400
C638        C  0.30103808  0.33910439  0.96559562     0.37000
C639        C  0.23280594  0.39975458  0.51955052     0.06600
F640        F  0.22196301  0.33338938  0.55721929    -0.19200
H641        H  0.26702024  0.28800201  0.03133688     0.16500
F642        F  0.31822283  0.33719374  0.93455250    -0.22900
H643        H  0.28876736  0.39303917  0.95620994     0.18200
C644        C  0.25050599  0.43268418  0.51937278     0.26200
C645        C  0.23076740  0.46357932  0.51627978    -0.11500
C646        C  0.19273848  0.46292030  0.51728396    -0.25500
C647        C  0.17496651  0.42983575  0.51843259     0.37200
C648        C  0.19490435  0.39851510  0.51857796    -0.27100
F649        F  0.28713791  0.43498491  0.52203031    -0.19200
H650        H  0.24580785  0.48815503  0.51550517     0.16400
F651        F  0.13865229  0.42771748  0.52243531    -0.22900
H652        H  0.19146933  0.37364881  0.01225751     0.18300
C653        C  0.14035937  0.45211343  0.74428846    -0.27000
C654        C  0.13038308  0.44033010  0.71038172     0.06600
C655        C  0.10960964  0.40922237  0.70631572     0.26200
C656        C  0.09758185  0.39139100  0.73558638    -0.11500
C657        C  0.10543793  0.40425955  0.76920681    -0.25400
C658        C  0.12766656  0.43414004  0.77379910     0.37000
C659        C  0.13918388  0.46091358  0.67892223     0.06600
F660        F  0.09806501  0.39775904  0.67413080    -0.19200
H661        H  0.07889448  0.36954152  0.73209621     0.16500
F662        F  0.13429898  0.44744375  0.80649844    -0.22900
H663        H  0.15660930  0.47584127  0.74784054     0.18200
C664        C  0.13120752  0.49724291  0.67620802     0.26200
C665        C  0.13396149  0.51421230  0.64366608    -0.11500
C666        C  0.14240374  0.49475823  0.61334849    -0.25500
C667        C  0.15240884  0.45893361  0.61702299     0.37200
C668        C  0.15155477  0.44265140  0.64952943    -0.27100
F669        F  0.11958517  0.51591535  0.70442851    -0.19200
H670        H  0.12944898  0.54246006  0.64209064     0.16400
F671        F  0.16503409  0.43971065  0.58986099    -0.22900
H672        H  0.15943640  0.41505856  0.65152506     0.18300
C673        C  0.31692379  0.06835631  0.67026066    -0.27000
C674        C  0.32034701  0.04571646  0.64100528     0.06600
C675        C  0.35504034  0.03668841  0.62925948     0.26200
C676        C  0.38541573  0.05281269  0.64449444    -0.11500
C677        C  0.38132330  0.07732119  0.67180289    -0.25400
C678        C  0.34729118  0.08380339  0.68576891     0.37000
C679        C  0.28768715  0.03680815  0.62011377     0.06600
F680        F  0.35940642  0.01393161  0.60193580    -0.19200
H681        H  0.41191975  0.04786194  0.63379855     0.16500
F682        F  0.34337312  0.10729862  0.71253786    -0.22900
H683        H  0.29063981  0.07638885  0.67950850     0.18200
C684        C  0.25522117  0.02919114  0.63714663     0.26200
C685        C  0.22276604  0.03068136  0.61853867    -0.11500
C686        C  0.22188468  0.03760290  0.58203751    -0.25500
C687        C  0.25477516  0.04161028  0.56434971     0.37200
C688        C  0.28730862  0.04206512  0.58341419    -0.27100
F689        F  0.25470022  0.02164640  0.67213913    -0.19200
H690        H  0.19838371  0.02652561  0.63323757     0.16400
F691        F  0.25545339  0.04690895  0.52904601    -0.22900
H692        H  0.31189943  0.04855961  0.56965030     0.18300
C693        C  0.25324823  0.50977599  0.79816559    -0.27000
C694        C  0.23439188  0.53121257  0.82182694     0.06600
C695        C  0.25367039  0.06769388  0.83525296     0.26200
C696        C  0.28630312  0.07973922  0.82155023    -0.11500
C697        C  0.30680762  0.05743268  0.80003089    -0.25400
C698        C  0.29125593  0.02610793  0.78694905     0.37000
C699        C  0.21241278  0.51397086  0.84881095     0.06600
F700        F  0.23748318  0.08683582  0.86086702    -0.19200
H701        H  0.29810315  0.10395267  0.83207684     0.16500
F702        F  0.30566163  0.49985871  0.76417945    -0.22900
H703        H  0.24520750  0.48241172  0.79398873     0.18200
C704        C  0.17460143  0.51634256  0.84887042     0.26200
C705        C  0.15502245  0.49854440  0.87479395    -0.11500
C706        C  0.17310211  0.47823917  0.90055926    -0.25500
C707        C  0.21099120  0.47679574  0.90084209     0.37200
C708        C  0.23044752  0.49469176  0.87527367    -0.27100
F709        F  0.15676474  0.53440743  0.82310536    -0.19200
H710        H  0.12574033  0.49894331  0.87373394     0.16400
F711        F  0.22897702  0.45645820  0.92469600    -0.22900
H712        H  0.26461520  0.99278035  0.87945709     0.18300
C713        C  0.36970552  0.26586211  0.76223067    -0.27000
C714        C  0.36088327  0.23622702  0.78276800     0.06600
C715        C  0.32432029  0.22730426  0.78754176     0.26200
C716        C  0.29729909  0.24586688  0.76977186    -0.11500
C717        C  0.30609419  0.27363104  0.74702887    -0.25400
C718        C  0.34230009  0.28481800  0.74473359     0.37000
C719        C  0.38809065  0.20917133  0.79175762     0.06600
F720        F  0.31495915  0.19789054  0.80597171    -0.19200
H721        H  0.26970071  0.23673348  0.77195126     0.16500
F722        F  0.35113952  0.31234839  0.72349508    -0.22900
H723        H  0.39775571  0.27277329  0.75797404     0.18200
C724        C  0.39918573  0.18684721  0.76443004     0.26200
C725        C  0.40592539  0.15119676  0.77134670    -0.11500
C726        C  0.40368368  0.13802228  0.80566610    -0.25500
C727        C  0.39955372  0.16193138  0.83382206     0.37200
C728        C  0.39134279  0.19743288  0.82675405    -0.27100
F729        F  0.39676645  0.19774420  0.73043565    -0.19200
H730        H  0.40817882  0.13310611  0.74961057     0.16400
F731        F  0.39726955  0.15005795  0.86748474    -0.22900
H732        H  0.38274729  0.21432816  0.84811179     0.18300
C733        C  0.43044982  0.07540023  0.01934728    -0.27000
C734        C  0.41284998  0.08874016  0.98918536     0.06600
C735        C  0.41307698  0.12550509  0.98276213     0.26200
C736        C  0.93235017  0.14733260  0.00319638    -0.11500
C737        C  0.45022339  0.13323008  0.53460695    -0.25400
C738        C  0.44881972  0.09697865  0.54282168     0.37000
C739        C  0.40143442  0.06497482  0.96030875     0.06600
F740        F  0.89717337  0.13908745  0.95122132    -0.19200
H741        H  0.93491977  0.17495721  0.99668154     0.16500
F742        F  0.46946848  0.08385790  0.56959808    -0.22900
H743        H  0.43081633  0.04715506  0.02445053     0.18200
C744        C  0.42834524  0.04732583  0.94137158     0.26200
C745        C  0.42263807  0.03959293  0.90577424    -0.11500
C746        C  0.38975768  0.04805111  0.88931580    -0.25500
C747        C  0.36094065  0.06041947  0.90975439     0.37200
C748        C  0.36688385  0.06893793  0.94515919    -0.27100
F749        F  0.46182752  0.04261779  0.95567390    -0.19200
H750        H  0.44492638  0.03048770  0.89025453     0.16400
F751        F  0.32886507  0.06939293  0.89441467    -0.22900
H752        H  0.34592604  0.08260385  0.95942676     0.18300
C753        C  0.40284484  0.39105794  0.85722056    -0.27000
C754        C  0.38382696  0.39863524  0.88807649     0.06600
C755        C  0.35393779  0.42167475  0.88625027     0.26200
C756        C  0.34008314  0.43182200  0.85351096    -0.11500
C757        C  0.35531043  0.41851100  0.82272764    -0.25400
C758        C  0.38769879  0.39941278  0.82455463     0.37000
C759        C  0.38869711  0.37519531  0.91886526     0.06600
F760        F  0.33510593  0.43040185  0.91540017    -0.19200
H761        H  0.31516558  0.44681073  0.85207244     0.16500
F762        F  0.40211470  0.38523023  0.79507736    -0.22900
H763        H  0.42661636  0.37434923  0.85820807     0.18200
C764        C  0.39003830  0.33823055  0.91361284     0.26200
C765        C  0.38904577  0.31534895  0.94212389    -0.11500
C766        C  0.38663208  0.32833458  0.97665492    -0.25500
C767        C  0.38428551  0.36536486  0.98186497     0.37200
C768        C  0.38611016  0.38846188  0.95324746    -0.27100
F769        F  0.38900016  0.32380256  0.88080941    -0.19200
H770        H  0.38894761  0.28724024  0.93681334     0.16400
F771        F  0.37919260  0.37945240  0.01425987    -0.22900
H772        H  0.38451539  0.41673303  0.95792656     0.18300
C773        C  0.98819212  0.23214864  0.93706496    -0.27000
C774        C  0.02251135  0.23276106  0.95311148     0.06600
C775        C  0.02564168  0.23279812  0.98997009     0.26200
C776        C  0.99498373  0.23657912  0.01021258    -0.11500
C777        C  0.96074528  0.24012058  0.99420923    -0.25400
C778        C  0.95738027  0.23500915  0.95742436     0.37000
C779        C  0.05507022  0.23207957  0.93161914     0.06600
F780        F  0.05842687  0.23030567  0.00638650    -0.19200
H781        H  0.00249151  0.24386848  0.53533739     0.16500
F782        F  0.42625817  0.23527262  0.94312849    -0.22900
H783        H  0.98527121  0.23073855  0.90865004     0.18200
C784        C  0.05914346  0.20537047  0.90645994     0.26200
C785        C  0.09273664  0.19974147  0.89190888    -0.11500
C786        C  0.12289064  0.21956301  0.90317427    -0.25500
C787        C  0.11811445  0.24861226  0.92558717     0.37200
C788        C  0.08403858  0.25519921  0.93932324    -0.27100
F789        F  0.03222974  0.18163949  0.89985951    -0.19200
H790        H  0.09648182  0.17625159  0.87613883     0.16400
F791        F  0.14705199  0.26729039  0.93795245    -0.22900
H792        H  0.08100325  0.27631989  0.95841387     0.18300
C793        C  0.00484823  0.45882294  0.55045839    -0.27000
C794        C  0.01396801  0.42743160  0.56841829     0.06600
C795        C  0.03996740  0.42860567  0.59582091     0.26200
C796        C  0.05342791  0.46099759  0.60737916    -0.11500
C797        C  0.04084237  0.49255568  0.59240879    -0.25400
C798        C  0.01955216  0.99049501  0.56687443     0.37000
C799        C  0.49599843  0.39370467  0.56624206     0.06600
F800        F  0.04896853  0.39915118  0.61443380    -0.19200
H801        H  0.07095236  0.46176687  0.63046652     0.16500
F802        F  0.00658567  0.02022100  0.55114540    -0.22900
H803        H  0.98531376  0.45834746  0.52889118     0.18200
C804        C  0.45814006  0.39597294  0.56805462     0.26200
C805        C  0.43725516  0.36530356  0.56853921    -0.11500
C806        C  0.45315619  0.33180785  0.56460127    -0.25500
C807        C  0.98646066  0.33121544  0.56575531     0.37200
C808        C  0.00765072  0.36174346  0.56413471    -0.27100
F809        F  0.44138860  0.42770661  0.57179930    -0.19200
H810        H  0.40824066  0.36793186  0.57072783     0.16400
F811        F  0.00342157  0.29949849  0.56788393    -0.22900
H812        H  0.03680209  0.35910377  0.56381047     0.18300
C813        C  0.50086912  0.33758102  0.67155768    -0.27000
C814        C  0.50066481  0.30921794  0.69507882     0.06600
C815        C  0.46812469  0.29128675  0.70204407     0.26200
C816        C  0.43587461  0.30293749  0.68626354    -0.11500
C817        C  0.43614105  0.33257448  0.66398106    -0.25400
C818        C  0.46906904  0.34920486  0.65632463     0.37000
C819        C  0.03374584  0.30289490  0.71349677     0.06600
F820        F  0.46739975  0.26369891  0.72496997    -0.19200
H821        H  0.41057630  0.29039435  0.69306404     0.16500
F822        F  0.47002047  0.37951614  0.63751551    -0.22900
H823        H  0.02454807  0.35224940  0.66472937     0.18200
C824        C  0.06605383  0.29976458  0.69494985     0.26200
C825        C  0.09888621  0.29904042  0.71299112    -0.11500
C826        C  0.10011236  0.29923572  0.75008902    -0.25500
C827        C  0.06743022  0.30228943  0.76858642     0.37200
C828        C  0.03462180  0.30472374  0.75031348    -0.27100
F829        F  0.06573642  0.29707867  0.65924981    -0.19200
H830        H  0.12315941  0.29621228  0.69764739     0.16400
F831        F  0.06682330  0.30122697  0.80425677    -0.22900
H832        H  0.00991291  0.30815606  0.76490439     0.18300
C833        C  0.11908319  0.14398303  0.81440452    -0.27000
C834        C  0.08145017  0.14652494  0.80946552     0.06600
C835        C  0.06564272  0.17991442  0.80443235     0.26200
C836        C  0.08704490  0.21016158  0.80527429    -0.11500
C837        C  0.12480885  0.20779144  0.80979329    -0.25400
C838        C  0.14068769  0.17420067  0.81396378     0.37000
C839        C  0.05880812  0.11503344  0.81507354     0.06600
F840        F  0.02949372  0.18337823  0.79862665    -0.19200
H841        H  0.07384016  0.23525490  0.80096443     0.16500
F842        F  0.17707600  0.17042157  0.81715134    -0.22900
H843        H  0.13180379  0.11866054  0.81955812     0.18200
C844        C  0.06946084  0.08150311  0.80274621     0.26200
C845        C  0.05414748  0.05103922  0.81701905    -0.11500
C846        C  0.02767371  0.05410718  0.84277299    -0.25500
C847        C  0.01419869  0.08732780  0.85198339     0.37200
C848        C  0.02972845  0.11762028  0.83824951    -0.27100
F849        F  0.09619407  0.07827115  0.77882275    -0.19200
H850        H  0.06445369  0.02521286  0.80984392     0.16400
F851        F  0.48869477  0.09009324  0.87828923    -0.22900
H852        H  0.02095376  0.14296129  0.84817623     0.18300
C853        C  0.16867138  0.16883047  0.60702449    -0.27000
C854        C  0.18474343  0.15462411  0.63762723     0.06600
C855        C  0.21000028  0.12724282  0.63511366     0.26200
C856        C  0.22419904  0.11933058  0.60255158    -0.11500
C857        C  0.21085370  0.13602230  0.57222376    -0.25400
C858        C  0.18185077  0.15953212  0.57419809     0.37000
C859        C  0.18363525  0.17561466  0.66982200     0.06600
F860        F  0.22479301  0.11227798  0.66449051    -0.19200
H861        H  0.24785347  0.10286363  0.60131613     0.16500
F862        F  0.16969704  0.17672235  0.54497638    -0.22900
H863        H  0.14922211  0.19013337  0.60867337     0.18200
C864        C  0.21614636  0.18945037  0.68413637     0.26200
C865        C  0.21517602  0.21409900  0.71115171    -0.11500
C866        C  0.18213089  0.22585554  0.72349150    -0.25500
C867        C  0.14960044  0.21147505  0.70985046     0.37200
C868        C  0.15044138  0.18656193  0.68297542    -0.27100
F869        F  0.24876207  0.18049980  0.67085234    -0.19200
H870        H  0.24023078  0.22430556  0.72196821     0.16400
F871        F  0.11710645  0.22109886  0.72289266    -0.22900
H872        H  0.12528531  0.17629687  0.67194009     0.18300
N873        N  0.23065834  0.63378479  0.03686938    -0.02300
C874        C  0.26372793  0.64877316  0.03327793     0.00300
C875        C  0.27652890  0.64026055  0.00020622    -0.22600
C876        C  0.24990141  0.62019672  0.98315890    -0.22800
C877        C  0.22156591  0.61651594  0.00637039     0.00200
H878        H  0.30238303  0.64779400  0.98948430     0.14000
H879        H  0.25331424  0.61232077  0.45591418     0.14000
N880        N  0.01533987  0.52586616  0.36315936    -0.02300
C881        C  0.02598391  0.52348905  0.39732950     0.00300
C882        C  0.00987344  0.99338540  0.41252712    -0.22600
C883        C  0.49033233  0.97449177  0.38584927    -0.22800
C884        C  0.49516445  0.49504486  0.35575222     0.00200
H885        H  0.01057406  0.98500513  0.43979448     0.14000
H886        H  0.47487851  0.95014275  0.38754530     0.14000
N887        N  0.40489721  0.84809059  0.15747445    -0.02300
C888        C  0.39837402  0.88213975  0.16724488     0.00300
C889        C  0.36553128  0.89282148  0.15315959    -0.22600
C890        C  0.35122043  0.86429362  0.13468065    -0.22800
C891        C  0.37595644  0.83690021  0.13726113     0.00200
H892        H  0.35316002  0.91857329  0.15611866     0.14000
H893        H  0.32533432  0.86362218  0.12099817     0.14000
C894        C  0.13806669  0.78639002  0.26803277     0.81400
N895        N  0.13308458  0.76813759  0.29831109    -0.76900
C896        C  0.14919500  0.73621314  0.30270531     0.83900
N897        N  0.17929049  0.72941950  0.28418132    -0.76800
C898        C  0.18376450  0.74611062  0.25315234     0.84000
N899        N  0.16607820  0.77697281  0.24739302    -0.78500
Fe900      Fe  0.25679048  0.80065105  0.33759306     1.65800
Fe901      Fe  0.18617464  0.82102960  0.38888886     1.73200
Fe902      Fe  0.20609293  0.87296338  0.31948610     1.54400
O903        O  0.25738401  0.89222659  0.32796950    -0.80500
O904        O  0.13877903  0.84326101  0.36411360    -0.78800
O905        O  0.28791486  0.84352537  0.31491519    -0.83000
O906        O  0.23766142  0.79108065  0.28844288    -0.77800
O907        O  0.18493905  0.90325159  0.36365347    -0.79600
O908        O  0.17323192  0.77202664  0.36948065    -0.82300
C909        C  0.23676910  0.81480393  0.26501829     0.98400
C910        C  0.28332814  0.87730306  0.31241692     1.05900
O911        O  0.21620148  0.83148565  0.34851643    -1.11300
O912        O  0.23016682  0.79626042  0.41788979    -0.73800
O913        O  0.27932066  0.80692714  0.38648927    -0.77300
O914        O  0.22531391  0.84637253  0.27214232    -0.77900
C915        C  0.26426487  0.79229471  0.41258594     0.99300
O916        O  0.22910880  0.75463804  0.35755186    -0.75900
O917        O  0.19679163  0.86987862  0.41067934    -0.81100
C918        C  0.13061765  0.85535421  0.33330136     0.99900
C919        C  0.18277877  0.89751943  0.39713950     1.05900
O920        O  0.15400573  0.85691682  0.30919692    -0.76700
C921        C  0.19699893  0.74799554  0.36867790     1.04200
N922        N  0.04541415  0.52520531  0.11314157    -0.02300
C923        C  0.03399519  0.52974690  0.14682738     0.00300
C924        C  0.04516736  0.56295221  0.15826328    -0.22600
C925        C  0.06355516  0.57892090  0.13076407    -0.22800
C926        C  0.06378726  0.55504661  0.10299755     0.00200
H927        H  0.03988126  0.57473360  0.18366903     0.14000
H928        H  0.07507077  0.60534080  0.13097353     0.14000
N929        N  0.15740297  0.70315717  0.40161249    -0.02300
C930        C  0.16322361  0.67137480  0.41744507     0.00300
C931        C  0.19772155  0.66003284  0.40983443    -0.22600
C932        C  0.21378087  0.68614485  0.38971498    -0.22800
C933        C  0.18845622  0.71270168  0.38480836     0.00200
H934        H  0.20988507  0.63527916  0.41769230     0.14000
H935        H  0.24121277  0.68590175  0.38018865     0.14000
N936        N  0.33359104  0.91818446  0.28996864    -0.02300
C937        C  0.30303314  0.89867004  0.28510625     0.00300
C938        C  0.29078088  0.90322972  0.25074169    -0.22600
C939        C  0.31512182  0.92552028  0.23415635    -0.22800
C940        C  0.34160254  0.93434420  0.25882112     0.00200
H941        H  0.26693200  0.89143638  0.23870900     0.14000
H942        H  0.31405922  0.93348062  0.20679176     0.14000
C943        C  0.43409168  0.75502822  0.51618393     0.81400
N944        N  0.44237508  0.77428447  0.04520091    -0.76900
C945        C  0.42611973  0.80477659  0.05515047     0.83900
N946        N  0.39612657  0.81218817  0.53685440    -0.76800
C947        C  0.38965536  0.79785075  0.50480812     0.84000
N948        N  0.40472775  0.76609819  0.49767081    -0.78500
Fe949      Fe  0.05788130  0.55105475  0.99359363     1.65800
Fe950      Fe  0.12864997  0.57435272  0.43994351     1.73200
Fe951      Fe  0.11165265  0.62035541  0.01332643     1.54400
O952        O  0.06180928  0.64252905  0.00580599    -0.80500
O953        O  0.17801221  0.59299467  0.46477812    -0.78800
O954        O  0.02830902  0.59491478  0.01730317    -0.83000
O955        O  0.07740266  0.53924712  0.04322616    -0.77800
O956        O  0.13641728  0.65246331  0.47230421    -0.79600
O957        O  0.14006804  0.52351363  0.45384345    -0.82300
C958        C  0.07899078  0.56295695  0.06693034     0.98400
C959        C  0.03443210  0.62860213  0.02016717     1.05900
O960        O  0.09909187  0.58098719  0.98252216    -1.11300
O961        O  0.08292060  0.55312707  0.41088252    -0.73800
O962        O  0.03588800  0.56348516  0.44495908    -0.77300
O963        O  0.09092461  0.59421626  0.05960546    -0.77900
C964        C  0.04911475  0.54957703  0.41763059     0.97300
O965        O  0.08821373  0.00570864  0.97294890    -0.75900
O966        O  0.11952001  0.62518005  0.42287241    -0.81100
C967        C  0.18511784  0.60068119  0.99768229     0.99900
C968        C  0.13661597  0.65002062  0.43847187     1.05900
O969        O  0.16188070  0.59975413  0.02189232    -0.76700
C970        C  0.11836037  0.99819555  0.46098562     1.04200
N971        N  0.97825421  0.65658675  0.04881989    -0.02300
C972        C  0.01445968  0.65182385  0.04586489     0.00300
C973        C  0.03196160  0.67399687  0.06992914    -0.22600
C974        C  0.00568210  0.69256170  0.08796733    -0.22800
C975        C  0.47190535  0.68007267  0.07433950     0.00200
H976        H  0.06090552  0.67660945  0.07384489     0.14000
H977        H  0.01030768  0.71252240  0.10804708     0.14000
N978        N  0.27905574  0.78317394  0.22192709    -0.02300
C979        C  0.27784741  0.77513100  0.18675697     0.00300
C980        C  0.24831920  0.79242517  0.17172763    -0.22600
C981        C  0.23108009  0.81103722  0.19807008    -0.22800
C982        C  0.24983751  0.80440447  0.22903150     0.00200
H983        H  0.23984307  0.79135084  0.14432529     0.14000
H984        H  0.20640977  0.82617111  0.19515750     0.14000
N985        N  0.15525105  0.95483090  0.42358929    -0.02300
C986        C  0.15802098  0.91896297  0.42050860     0.00300
C987        C  0.13221680  0.90345413  0.44179065    -0.22600
C988        C  0.11317766  0.93048807  0.45793067    -0.22800
C989        C  0.12844509  0.96206296  0.44722143     0.00200
H990        H  0.12727950  0.87533497  0.44486405     0.14000
H991        H  0.09134104  0.92729157  0.47633975     0.14000
C992        C  0.39073013  0.60044602  0.31039525     0.81400
N993        N  0.35909660  0.59048430  0.29441853    -0.76900
C994        C  0.34032346  0.56200796  0.30612237     0.83900
N995        N  0.35343717  0.54352589  0.33413622    -0.76800
C996        C  0.38374126  0.55427457  0.35160399     0.84000
N997        N  0.40302486  0.58195019  0.33873410    -0.78500
Fe998      Fe  0.36167654  0.67654546  0.06924528     1.65800
Fe999      Fe  0.30990142  0.74660295  0.08873731     1.73200
Fe1000     Fe  0.38129153  0.72666777  0.14111291     1.54400
O1001       O  0.37095661  0.67702077  0.15991910    -0.80500
O1002       O  0.33693685  0.79258344  0.11044438    -0.78800
O1003       O  0.38497244  0.64614977  0.11232067    -0.83000
O1004       O  0.41180349  0.69561770  0.06005905    -0.77800
O1005       O  0.33688338  0.74912678  0.17098321    -0.79600
O1006       O  0.32824905  0.75829268  0.03936663    -0.82300
C1007       C  0.43595888  0.69536607  0.08389502     0.98400
C1008       C  0.38700431  0.65114926  0.14588936     1.05900
O1009       O  0.35118161  0.71691554  0.09945177    -1.11300
O1010       O  0.27948221  0.70345653  0.06436498    -0.73800
O1011       O  0.31138819  0.65489091  0.07575470    -0.77300
O1012       O  0.42909751  0.70614068  0.11542694    -0.77900
C1013       C  0.28463470  0.66983037  0.06072973     0.97300
O1014       O  0.34124301  0.70324324  0.02289242    -0.75900
O1015       O  0.28851754  0.73733071  0.13765887    -0.81100
C1016       C  0.36874739  0.80042082  0.12274369     0.99900
C1017       C  0.30248571  0.75140080  0.16519088     1.05900
O1018       O  0.39330268  0.77715433  0.12520211    -0.76700
C1019       C  0.32993626  0.73473168  0.01560060     1.04200
N1020       N  0.41081838  0.59895411  0.18209040    -0.02300
C1021       C  0.41427348  0.63180496  0.16837426     0.00300
C1022       C  0.44680035  0.64621987  0.18020456    -0.22600
C1023       C  0.46374216  0.62079866  0.20113430    -0.22800
C1024       C  0.44074422  0.59179358  0.20207967     0.00200
H1025       H  0.45734157  0.67225097  0.17407851     0.14000
H1026       H  0.49004153  0.62318471  0.21381647     0.14000
N1027       N  0.08455359  0.89241898  0.29883445    -0.02300
C1028       C  0.04882937  0.89970793  0.30054794     0.00300
C1029       C  0.03493201  0.88280138  0.32981341    -0.22600
C1030       C  0.06336286  0.86486118  0.34620461    -0.22800
C1031       C  0.09373203  0.87042498  0.32596462     0.00200
H1032       H  0.50521630  0.87968957  0.33558740     0.14000
H1033       H  0.06172931  0.84883007  0.36976549     0.14000
N1034       N  0.29719318  0.77176081  0.46871774    -0.02300
C1035       C  0.28661760  0.76703724  0.43465268     0.00300
C1036       C  0.30081597  0.73552530  0.42243248    -0.22600
C1037       C  0.31984324  0.72023158  0.45030185    -0.22800
C1038       C  0.31737982  0.74305967  0.47879548     0.00200
H1039       H  0.29745027  0.72460047  0.39620912     0.14000
H1040       H  0.33368599  0.69501639  0.44977945     0.14000
C1041       C  0.14646551  0.00964802  0.07906849     0.81400
N1042       N  0.14501803  0.98854503  0.05004633    -0.76900
C1043       C  0.17162617  0.99074493  0.02592319     0.83900
N1044       N  0.19163692  0.02091634  0.02530562    -0.76800
C1045       C  0.19421774  0.53988496  0.05941048     0.84000
N1046       N  0.16891673  0.03807221  0.07905788    -0.78500
Fe1047     Fe  0.44850930  0.93159119  0.26594311     1.65800
Fe1048     Fe  0.50543133  0.50054387  0.24705808     1.73200
Fe1049     Fe  0.43195288  0.98241848  0.19466501     1.54400
O1050       O  0.43690147  0.93252109  0.17379638    -0.80500
O1051       O  0.48134517  0.54852049  0.22786680    -0.78800
O1052       O  0.42495541  0.90195851  0.22266939    -0.83000
O1053       O  0.40008308  0.95543266  0.27450312    -0.77800
O1054       O  0.47681192  0.50815551  0.16693898    -0.79600
O1055       O  0.48512171  0.51023420  0.29595508    -0.82300
C1056       C  0.37616386  0.95341238  0.25063799     0.98400
C1057       C  0.42262782  0.90594538  0.18901444     1.05900
O1058       O  0.46268920  0.97031271  0.23505324    -1.11300
O1059       O  0.03423743  0.95458459  0.26927533    -0.73800
O1060       O  0.49733013  0.90701993  0.26086077    -0.77300
O1061       O  0.38342360  0.96318753  0.21908618    -0.77900
C1062       C  0.02687466  0.92151258  0.27465926     0.97300
O1063       O  0.46940093  0.95589948  0.31246937    -0.75900
O1064       O  0.52718592  0.49482463  0.19721606    -0.81100
C1065       C  0.44896245  0.55666884  0.21843528     0.99900
C1066       C  0.51161103  0.50954365  0.17073506     1.05900
O1067       O  0.42392357  0.53377578  0.21905166    -0.76700
C1068       C  0.48202585  0.48655030  0.31933168     1.04200
C1069       C  0.27897619  0.86617027  0.48172879    -0.27000
C1070       C  0.25465840  0.86514989  0.50951073     0.06600
C1071       C  0.24996117  0.83333740  0.52842752     0.26200
C1072       C  0.26695107  0.80238513  0.51709850    -0.11500
C1073       C  0.28944854  0.80344043  0.48774072    -0.25400
C1074       C  0.29659076  0.83598820  0.47143871     0.37000
C1075       C  0.23288249  0.89537581  0.02337483     0.06600
F1076       F  0.22596865  0.82819302  0.06052923    -0.19200
H1077       H  0.26045928  0.77732471  0.52942359     0.16500
F1078       F  0.31615572  0.83766459  0.44171741    -0.22900
H1079       H  0.28210847  0.88961332  0.46559898     0.18200
C1080       C  0.24986381  0.92862298  0.02246333     0.26200
C1081       C  0.22945811  0.95895124  0.01838560    -0.11500
C1082       C  0.19145736  0.95752255  0.01921730    -0.25500
C1083       C  0.17439564  0.92413435  0.02176720     0.37200
C1084       C  0.19503326  0.89328511  0.02292461    -0.27100
F1085       F  0.28648957  0.93164218  0.02426883    -0.19200
H1086       H  0.24396311  0.98375057  0.01654076     0.16400
F1087       F  0.13810541  0.92133236  0.02575272    -0.22900
H1088       H  0.18211338  0.86615199  0.52051330     0.18300
C1089       C  0.14035872  0.95138789  0.24448312    -0.27000
C1090       C  0.12844394  0.94021843  0.21100236     0.06600
C1091       C  0.10693179  0.90963063  0.20739056     0.26200
C1092       C  0.09620312  0.89148545  0.23692555    -0.11500
C1093       C  0.10609119  0.90364505  0.27036214    -0.25400
C1094       C  0.12907026  0.93306227  0.27430950     0.37000
C1095       C  0.13721121  0.96024075  0.17939949     0.06600
F1096       F  0.09381553  0.89891452  0.17550537    -0.19200
H1097       H  0.07686101  0.87014459  0.23401176     0.16500
F1098       F  0.13778359  0.94564419  0.30685744    -0.22900
H1099       H  0.15719833  0.97478941  0.24747796     0.18200
C1100       C  0.12832378  0.99624501  0.17569346     0.26200
C1101       C  0.13163296  0.01256529  0.14286916    -0.11500
C1102       C  0.14153888  0.99255816  0.11336371    -0.25500
C1103       C  0.15239247  0.95710997  0.11817889     0.37200
C1104       C  0.15071869  0.94149452  0.15089052    -0.27100
F1105       F  0.11505952  0.01500432  0.20313502    -0.19200
H1106       H  0.12608377  0.04056841  0.14039092     0.16400
F1107       F  0.16643423  0.93760561  0.09195041    -0.22900
H1108       H  0.15886453  0.91404353  0.15375819     0.18300
C1109       C  0.31877226  0.56345013  0.16945010    -0.27000
C1110       C  0.32433009  0.54033999  0.14094633     0.06600
C1111       C  0.35964406  0.53199596  0.13083250     0.26200
C1112       C  0.38874433  0.54959366  0.14661896    -0.11500
C1113       C  0.38260398  0.57508057  0.17262405    -0.25400
C1114       C  0.34787344  0.58075349  0.18528826     0.37000
C1115       C  0.29328370  0.53153220  0.11818703     0.06600
F1116       F  0.36568922  0.50900123  0.10404619    -0.19200
H1117       H  0.41580771  0.54531727  0.13699745     0.16500
F1118       F  0.34200917  0.60529150  0.21073890    -0.22900
H1119       H  0.29174524  0.57059500  0.17739575     0.18200
C1120       C  0.26062673  0.52148069  0.13337437     0.26200
C1121       C  0.22868518  0.52472574  0.11423474    -0.11500
C1122       C  0.22875483  0.53662104  0.07904118    -0.25500
C1123       C  0.26205374  0.54257717  0.06259003     0.37200
C1124       C  0.29406323  0.54075885  0.08233306    -0.27100
F1125       F  0.25943488  0.51063883  0.16746293    -0.19200
H1126       H  0.20393401  0.51827824  0.12753975     0.16400
F1127       F  0.26354678  0.55263874  0.02835374    -0.22900
H1128       H  0.31907146  0.54900001  0.07022085     0.18300
C1129       C  0.25687429  0.01350306  0.30516980    -0.27000
C1130       C  0.23915949  0.03574392  0.32895243     0.06600
C1131       C  0.24646546  0.57124749  0.33412858     0.26200
C1132       C  0.28020134  0.58272293  0.32252669    -0.11500
C1133       C  0.30099098  0.56069443  0.30098664    -0.25400
C1134       C  0.28514582  0.53028746  0.28611636     0.37000
C1135       C  0.21646499  0.01912944  0.35571229     0.06600
F1136       F  0.22961260  0.58987681  0.35970375    -0.19200
H1137       H  0.29222149  0.60617249  0.33445929     0.16500
F1138       F  0.30897081  0.00066828  0.27180781    -0.22900
H1139       H  0.24763989  0.98646937  0.30117030     0.18200
C1140       C  0.17862668  0.02101348  0.35437978     0.26200
C1141       C  0.15826895  0.00124763  0.37827002    -0.11500
C1142       C  0.17568816  0.97968714  0.40344490    -0.25500
C1143       C  0.21351929  0.97931835  0.40569828     0.37200
C1144       C  0.23373117  0.99898506  0.38202810    -0.27100
F1145       F  0.16161039  0.04044615  0.32909414    -0.19200
H1146       H  0.12903094  0.00126940  0.37609715     0.16400
F1147       F  0.23076565  0.95867552  0.42985211    -0.22900
H1148       H  0.25740913  0.50129101  0.37895864     0.18300
C1149       C  0.36957477  0.76516984  0.26291088    -0.27000
C1150       C  0.36119952  0.73612451  0.28441266     0.06600
C1151       C  0.32474423  0.72690582  0.28950883     0.26200
C1152       C  0.29749250  0.74415866  0.27068560    -0.11500
C1153       C  0.30600164  0.77094065  0.24665689    -0.25400
C1154       C  0.34198533  0.78275145  0.24430851     0.37000
C1155       C  0.38861375  0.70912988  0.29292672     0.06600
F1156       F  0.31578591  0.69821230  0.30922224    -0.19200
H1157       H  0.27002242  0.73488663  0.27334797     0.16500
F1158       F  0.35051774  0.80960952  0.22214251    -0.22900
H1159       H  0.39752282  0.77237259  0.25851827     0.18200
C1160       C  0.39890990  0.68680830  0.26522434     0.26200
C1161       C  0.40458998  0.65090458  0.27170142    -0.11500
C1162       C  0.40210026  0.63750016  0.30591704    -0.25500
C1163       C  0.39940459  0.66128434  0.33439156     0.37200
C1164       C  0.39225251  0.69708187  0.32778582    -0.27100
F1165       F  0.39625041  0.69802678  0.23131179    -0.19200
H1166       H  0.40619689  0.63295316  0.24965244     0.16400
F1167       F  0.39730384  0.64915791  0.36798768    -0.22900
H1168       H  0.38443694  0.71400741  0.34944096     0.18300
C1169       C  0.42856306  0.57363463  0.51995251    -0.27000
C1170       C  0.41066685  0.58768696  0.49025388     0.06600
C1171       C  0.41097008  0.62455477  0.48464170     0.26200
C1172       C  0.93250882  0.64555448  0.50818348    -0.11500
C1173       C  0.45073634  0.63416272  0.03055944    -0.25400
C1174       C  0.44646004  0.59790781  0.03779076     0.37000
C1175       C  0.39876116  0.56472613  0.46092861     0.06600
F1176       F  0.89439430  0.63481701  0.45888223    -0.19200
H1177       H  0.93380269  0.67308265  0.50056688     0.16500
F1178       F  0.46433459  0.58295160  0.06545823    -0.22900
H1179       H  0.42876676  0.54526471  0.52449440     0.18200
C1180       C  0.42532742  0.54741090  0.44124118     0.26200
C1181       C  0.41896350  0.54011129  0.40563567    -0.11500
C1182       C  0.38579238  0.54882306  0.38982304    -0.25500
C1183       C  0.35748355  0.56132905  0.41086859     0.37200
C1184       C  0.36405620  0.56925333  0.44630311    -0.27100
F1185       F  0.45902943  0.54248132  0.45495252    -0.19200
H1186       H  0.44094219  0.53091018  0.38964332     0.16400
F1187       F  0.32527459  0.57088365  0.39615478    -0.22900
H1188       H  0.34342128  0.58285159  0.46109674     0.18300
C1189       C  0.40018500  0.88508089  0.35488999    -0.27000
C1190       C  0.38139971  0.89219799  0.38595711     0.06600
C1191       C  0.35242839  0.91641114  0.38505037     0.26200
C1192       C  0.33973721  0.92920611  0.35282223    -0.11500
C1193       C  0.35486829  0.91705531  0.32152432    -0.25400
C1194       C  0.38607597  0.89616769  0.32263962     0.37000
C1195       C  0.38653528  0.86864377  0.41657233     0.06600
F1196       F  0.33328488  0.92397876  0.41434947    -0.19200
H1197       H  0.31541311  0.94514127  0.35193088     0.16500
F1198       F  0.39991423  0.88273926  0.29256361    -0.22900
H1199       H  0.42316268  0.86733634  0.35518018     0.18200
C1200       C  0.38761681  0.83162308  0.41155592     0.26200
C1201       C  0.38710961  0.80896508  0.44032786    -0.11500
C1202       C  0.38503940  0.82238221  0.47476623    -0.25500
C1203       C  0.38324123  0.85947593  0.47964306     0.37200
C1204       C  0.38496859  0.88223037  0.45085869    -0.27100
F1205       F  0.38674521  0.81701508  0.37883306    -0.19200
H1206       H  0.38751349  0.78073347  0.43539252     0.16400
F1207       F  0.37849711  0.87403157  0.51185884    -0.22900
H1208       H  0.38385692  0.91056247  0.45535345     0.18300
C1209       C  0.98750287  0.73085372  0.43622245    -0.27000
C1210       C  0.02259807  0.73457813  0.45028457     0.06600
C1211       C  0.02760730  0.73634889  0.48697532     0.26200
C1212       C  0.99801871  0.73944830  0.50863309    -0.11500
C1213       C  0.96281759  0.73978158  0.49451420    -0.25400
C1214       C  0.95773998  0.73231755  0.45829450     0.37000
C1215       C  0.05436038  0.73465572  0.42745651     0.06600
F1216       F  0.06119774  0.73606146  0.50194695    -0.19200
H1217       H  0.99671965  0.73929764  0.03532615     0.16500
F1218       F  0.42407501  0.72551772  0.44567510    -0.22900
H1219       H  0.98302824  0.72788914  0.40810264     0.18200
C1220       C  0.05885251  0.70736013  0.40294762     0.26200
C1221       C  0.09296737  0.70068943  0.38990912    -0.11500
C1222       C  0.12304546  0.72028638  0.40178051    -0.25500
C1223       C  0.11786612  0.75018217  0.42298476     0.37200
C1224       C  0.08331388  0.75794877  0.43487699    -0.27100
F1225       F  0.03186263  0.68386509  0.39585022    -0.19200
H1226       H  0.09686012  0.67680315  0.37481284     0.16400
F1227       F  0.14657275  0.76855718  0.43632088    -0.22900
H1228       H  0.08000635  0.77969413  0.45320289     0.18300
C1229       C  0.01107620  0.95983669  0.04875838    -0.27000
C1230       C  0.02031154  0.92824451  0.06621172     0.06600
C1231       C  0.04511549  0.92920080  0.09457264     0.26200
C1232       C  0.05602126  0.96163336  0.10842496    -0.11500
C1233       C  0.04305218  0.99322639  0.09380643    -0.25400
C1234       C  0.01454957  0.49446130  0.06446725     0.37000
C1235       C  0.49265549  0.89576148  0.06924693     0.06600
F1236       F  0.05493614  0.89917089  0.11182059    -0.19200
H1237       H  0.07201917  0.96213617  0.13248502     0.16500
F1238       F  0.00122055  0.52559959  0.05214512    -0.22900
H1239       H  0.99227167  0.95943549  0.02657943     0.18200
C1240       C  0.45478439  0.89831283  0.07156718     0.26200
C1241       C  0.43365726  0.86781935  0.07180652    -0.11500
C1242       C  0.44934285  0.83421567  0.06794936    -0.25500
C1243       C  0.98959772  0.83299986  0.06140289     0.37200
C1244       C  0.01191444  0.86284700  0.06031190    -0.27100
F1245       F  0.43821487  0.93007231  0.07583064    -0.19200
H1246       H  0.40466297  0.87066066  0.07381465     0.16400
F1247       F  0.00535410  0.80064993  0.06009898    -0.22900
H1248       H  0.04091381  0.85937730  0.05865900     0.18300
C1249       C  0.50280929  0.83793246  0.17368459    -0.27000
C1250       C  0.50368272  0.80976085  0.19739314     0.06600
C1251       C  0.47177319  0.79046830  0.20397535     0.26200
C1252       C  0.43906842  0.80089481  0.18797660    -0.11500
C1253       C  0.43826694  0.83049311  0.16559122    -0.25400
C1254       C  0.47070928  0.84808934  0.15802760     0.37000
C1255       C  0.03977199  0.80427550  0.21138533     0.06600
F1256       F  0.47201695  0.76273584  0.22675996    -0.19200
H1257       H  0.41421144  0.78750540  0.19477447     0.16500
F1258       F  0.47077438  0.87828893  0.13912338    -0.22900
H1259       H  0.02825516  0.85361487  0.16249040     0.18200
C1260       C  0.07281272  0.80352343  0.19370399     0.26200
C1261       C  0.10514092  0.80206187  0.21270251    -0.11500
C1262       C  0.10521087  0.79958330  0.24972750    -0.25500
C1263       C  0.07198914  0.80194177  0.26740301     0.37200
C1264       C  0.03965821  0.80444969  0.24829117    -0.27100
F1265       F  0.07379071  0.80325404  0.15794771    -0.19200
H1266       H  0.12997557  0.80052160  0.19802272     0.16400
F1267       F  0.07038230  0.80005864  0.30302603    -0.22900
H1268       H  0.01447850  0.80659717  0.26235809     0.18300
C1269       C  0.11760390  0.64195591  0.31386557    -0.27000
C1270       C  0.08025462  0.64549913  0.30746632     0.06600
C1271       C  0.06566080  0.67919002  0.30127754     0.26200
C1272       C  0.08794373  0.70882704  0.30238408    -0.11500
C1273       C  0.12541459  0.70549668  0.30859332    -0.25400
C1274       C  0.14011798  0.67156033  0.31391529     0.37000
C1275       C  0.05647481  0.61477797  0.31269221     0.06600
F1276       F  0.02986546  0.68349716  0.29401511    -0.19200
H1277       H  0.07571234  0.73417340  0.29698378     0.16500
F1278       F  0.17621153  0.66689860  0.31890796    -0.22900
H1279       H  0.12932808  0.61635255  0.31986264     0.18200
C1280       C  0.06661508  0.58089489  0.30099509     0.26200
C1281       C  0.05068084  0.55099710  0.31564917    -0.11500
C1282       C  0.02402105  0.55493256  0.34108737    -0.25500
C1283       C  0.01081457  0.58850490  0.34944036     0.37200
C1284       C  0.02699472  0.61831978  0.33529152    -0.27100
F1285       F  0.09368378  0.57676698  0.27757963    -0.19200
H1286       H  0.06080120  0.52490739  0.30917787     0.16400
F1287       F  0.48375150  0.59044676  0.37206076    -0.22900
H1288       H  0.01855721  0.64402298  0.34461731     0.18300
C1289       C  0.16996369  0.66613309  0.10567886    -0.27000
C1290       C  0.18824853  0.65284631  0.13557975     0.06600
C1291       C  0.21415699  0.62618420  0.13183378     0.26200
C1292       C  0.22678627  0.61850343  0.09861083    -0.11500
C1293       C  0.21125896  0.63449184  0.06885494    -0.25400
C1294       C  0.18144766  0.65684038  0.07222143     0.37000
C1295       C  0.18711762  0.67329873  0.16828124     0.06600
F1296       F  0.23061989  0.61128943  0.16039584    -0.19200
H1297       H  0.25095396  0.60287003  0.09635880     0.16500
F1298       F  0.16673960  0.67307801  0.04354479    -0.22900
H1299       H  0.14975868  0.68666183  0.10809182     0.18200
C1300       C  0.21958026  0.68607127  0.18374068     0.26200
C1301       C  0.21849620  0.71002306  0.21141629    -0.11500
C1302       C  0.18540667  0.72241528  0.22312296    -0.25500
C1303       C  0.15293973  0.70936552  0.20818968     0.37200
C1304       C  0.15386625  0.68482524  0.18097437    -0.27100
F1305       F  0.25239983  0.67701813  0.17098928    -0.19200
H1306       H  0.24344827  0.71929615  0.22300691     0.16400
F1307       F  0.12034671  0.72009692  0.22016931    -0.22900
H1308       H  0.12871234  0.67543954  0.16923175     0.18300
N1309       N  0.23099085  0.63594228  0.53566136    -0.02300
C1310       C  0.26378909  0.65152996  0.53269885     0.00300
C1311       C  0.27719444  0.64352703  0.49973806    -0.22600
C1312       C  0.25120513  0.62301361  0.48223558    -0.22800
C1313       C  0.22268271  0.61858254  0.50512142     0.00200
H1314       H  0.30314395  0.65136033  0.48950098     0.14000
H1315       H  0.25124623  0.60964174  0.95671636     0.14000
N1316       N  0.01544922  0.52407306  0.86210612    -0.02300
C1317       C  0.02446567  0.52178896  0.89670373     0.00300
C1318       C  0.01370503  0.99108721  0.91213966    -0.22600
C1319       C  0.49383373  0.97347780  0.88374100    -0.22800
C1320       C  0.49556710  0.49494485  0.85547615     0.00200
H1321       H  0.01655078  0.98152315  0.93891162     0.14000
H1322       H  0.47951190  0.94844123  0.88490938     0.14000
N1323       N  0.40417854  0.85051042  0.65546136    -0.02300
C1324       C  0.39786157  0.88451792  0.66524110     0.00300
C1325       C  0.36559028  0.89577480  0.65029760    -0.22600
C1326       C  0.35130307  0.86745312  0.63146421    -0.22800
C1327       C  0.37555654  0.83969473  0.63473133     0.00200
H1328       H  0.35351942  0.92170150  0.65304887     0.14000
H1329       H  0.32572843  0.86712073  0.61721497     0.14000
C1330       C  0.13597170  0.78454078  0.76994659     0.81400
N1331       N  0.13245453  0.76578404  0.80010460    -0.76900
C1332       C  0.14856878  0.73370934  0.80294261     0.83900
N1333       N  0.17810795  0.72752889  0.78339226    -0.76800
C1334       C  0.18175391  0.74528543  0.75280789     0.84000
N1335       N  0.16341192  0.77597790  0.74824299    -0.78500
Fe1336     Fe  0.25449888  0.80047803  0.83751865     1.65800
Fe1337     Fe  0.18432907  0.82041056  0.88967929     1.73200
Fe1338     Fe  0.20314256  0.87234467  0.81973715     1.54400
O1339       O  0.25452335  0.89229876  0.82673104    -0.80500
O1340       O  0.13618098  0.84243904  0.86579175    -0.78800
O1341       O  0.28533893  0.84347972  0.81455738    -0.83000
O1342       O  0.23475977  0.79104015  0.78845541    -0.77800
O1343       O  0.18311173  0.90248393  0.86398949    -0.79600
O1344       O  0.17147229  0.77112614  0.87074116    -0.82300
C1345       C  0.23340413  0.81477657  0.76503610     0.98400
C1346       C  0.28075337  0.87724641  0.81168499     1.05900
O1347       O  0.21390507  0.83105089  0.84887779    -1.11300
O1348       O  0.22868800  0.79607372  0.91825701    -0.73800
O1349       O  0.27752132  0.80671680  0.88634245    -0.77300
O1350       O  0.22160819  0.84613099  0.77223478    -0.77900
C1351       C  0.26274975  0.79235911  0.91278024     0.99300
O1352       O  0.22729557  0.75425133  0.85766433    -0.75900
O1353       O  0.19530169  0.86920450  0.91107550    -0.81100
C1354       C  0.12763494  0.85439069  0.83502352     0.99900
C1355       C  0.18159030  0.89691057  0.89746989     1.05900
O1356       O  0.15085412  0.85576926  0.81070789    -0.76700
C1357       C  0.19541107  0.74724285  0.86917414     1.04200
N1358       N  0.04611239  0.52465425  0.61175798    -0.02300
C1359       C  0.03510285  0.52916369  0.64561899     0.00300
C1360       C  0.04803412  0.56145568  0.65781755    -0.22600
C1361       C  0.06680422  0.57722886  0.63056933    -0.22800
C1362       C  0.06575451  0.55398394  0.60229781     0.00200
H1363       H  0.04380384  0.57270752  0.68366270     0.14000
H1364       H  0.07976385  0.60299484  0.63138328     0.14000
N1365       N  0.15609232  0.70137622  0.90086246    -0.02300
C1366       C  0.16175209  0.66932441  0.91608611     0.00300
C1367       C  0.19641579  0.65826660  0.90862141    -0.22600
C1368       C  0.21258615  0.68490336  0.88913393    -0.22800
C1369       C  0.18718411  0.71147412  0.88453627     0.00200
H1370       H  0.20876805  0.63358408  0.91652752     0.14000
H1371       H  0.24018495  0.68509123  0.88004381     0.14000
N1372       N  0.33172543  0.91813760  0.78996551    -0.02300
C1373       C  0.30120319  0.89852957  0.78467503     0.00300
C1374       C  0.28954189  0.90304855  0.75012576    -0.22600
C1375       C  0.31417840  0.92532756  0.73389277    -0.22800
C1376       C  0.34030400  0.93426746  0.75891840     0.00200
H1377       H  0.26582884  0.89125825  0.73779715     0.14000
H1378       H  0.31357395  0.93318493  0.70648372     0.14000
C1379       C  0.43286677  0.75814141  0.01441161     0.81400
N1380       N  0.44384981  0.77312385  0.54585522    -0.76900
C1381       C  0.42715542  0.80389557  0.55424875     0.83900
N1382       N  0.39544773  0.81463580  0.03787353    -0.76800
C1383       C  0.38789297  0.80112338  0.00563805     0.84000
N1384       N  0.40329223  0.76995198  0.99673807    -0.78500
Fe1385     Fe  0.05887528  0.55294344  0.49316802     1.65800
Fe1386     Fe  0.12744152  0.57267031  0.94028098     1.73200
Fe1387     Fe  0.11398058  0.62080333  0.51416434     1.54400
O1388       O  0.06444664  0.64424364  0.50862598    -0.80500
O1389       O  0.17645564  0.59176704  0.96581897    -0.78800
O1390       O  0.02996557  0.59683943  0.51810894    -0.83000
O1391       O  0.07830951  0.53946285  0.54221424    -0.77800
O1392       O  0.13465160  0.65122267  0.97114186    -0.79600
O1393       O  0.13935078  0.52227668  0.95488889    -0.82300
C1394       C  0.08086838  0.56244681  0.56645345     0.98400
C1395       C  0.03662323  0.63035601  0.52225032     1.05900
O1396       O  0.10051501  0.58242513  0.48251359    -1.11300
O1397       O  0.08177205  0.55092369  0.91109674    -0.73800
O1398       O  0.03454391  0.56029226  0.94530664    -0.77300
O1399       O  0.09362363  0.59357367  0.55990161    -0.77900
C1400       C  0.04791444  0.54707174  0.91773432     0.97300
O1401       O  0.08668956  0.00480071  0.47365581    -0.75900
O1402       O  0.11814326  0.62308991  0.92216900    -0.81100
C1403       C  0.18684661  0.60147317  0.49662733     0.99900
C1404       C  0.13516082  0.64817574  0.93737464     1.05900
O1405       O  0.16397485  0.59922427  0.52107716    -0.76700
C1406       C  0.11959796  0.99933038  0.95962870     1.04200
N1407       N  0.97971427  0.65608485  0.55253550    -0.02300
C1408       C  0.01602131  0.65377905  0.54767447     0.00300
C1409       C  0.03287855  0.67888269  0.56921346    -0.22600
C1410       C  0.00620228  0.69689560  0.58730256    -0.22800
C1411       C  0.47191558  0.68051228  0.57627946     0.00200
H1412       H  0.06165278  0.68405110  0.57117885     0.14000
H1413       H  0.01032228  0.71891612  0.60523362     0.14000
N1414       N  0.27577263  0.78380787  0.72156862    -0.02300
C1415       C  0.27603426  0.77822979  0.68594270     0.00300
C1416       C  0.24732177  0.79690837  0.67100283    -0.22600
C1417       C  0.22920491  0.81394349  0.69784537    -0.22800
C1418       C  0.24657878  0.80493555  0.72895564     0.00200
H1419       H  0.24003164  0.79788516  0.64329536     0.14000
H1420       H  0.20511034  0.82996132  0.69499835     0.14000
N1421       N  0.15639019  0.95488873  0.92343813    -0.02300
C1422       C  0.15790347  0.91898084  0.92083380     0.00300
C1423       C  0.13124957  0.90434990  0.94163472    -0.22600
C1424       C  0.11276125  0.93206434  0.95704463    -0.22800
C1425       C  0.12937905  0.96303629  0.94650913     0.00200
H1426       H  0.12516902  0.87642705  0.94455548     0.14000
H1427       H  0.09022718  0.92972133  0.97477871     0.14000
C1428       C  0.38907453  0.59557274  0.80459646     0.81400
N1429       N  0.35771282  0.58499358  0.78853017    -0.76900
C1430       C  0.33877977  0.55705248  0.80112681     0.83900
N1431       N  0.35111867  0.54007461  0.83040766    -0.76800
C1432       C  0.38156933  0.55110809  0.84739504     0.84000
N1433       N  0.40153164  0.57747569  0.83307113    -0.78500
Fe1434     Fe  0.36065694  0.67729497  0.57081866     1.65800
Fe1435     Fe  0.30989743  0.74912885  0.58746365     1.73200
Fe1436     Fe  0.38067321  0.72949561  0.64116806     1.54400
O1437       O  0.37177777  0.68005749  0.66169628    -0.80500
O1438       O  0.33645408  0.79534617  0.60845596    -0.78800
O1439       O  0.38327435  0.64732174  0.61463378    -0.83000
O1440       O  0.41145835  0.69451560  0.56158741    -0.77800
O1441       O  0.33536864  0.75225831  0.67007973    -0.79600
O1442       O  0.32994267  0.75906513  0.53854557    -0.82300
C1443       C  0.43565687  0.69576420  0.58537204     0.98400
C1444       C  0.38690083  0.65338845  0.64793346     1.05900
O1445       O  0.35053166  0.71871497  0.59983913    -1.11300
O1446       O  0.27927755  0.70624488  0.56339383    -0.73800
O1447       O  0.30955170  0.65737540  0.57731271    -0.77300
O1448       O  0.42878866  0.70841144  0.61624835    -0.77900
C1449       C  0.28381383  0.67249422  0.56077551     0.97300
O1450       O  0.34149916  0.70330677  0.52351798    -0.75900
O1451       O  0.28701370  0.74183566  0.63596785    -0.81100
C1452       C  0.36814970  0.80309937  0.62077687     0.99900
C1453       C  0.30095861  0.75508305  0.66392497     1.05900
O1454       O  0.39243846  0.77965093  0.62378811    -0.76700
C1455       C  0.33116971  0.73490924  0.51538046     1.04200
N1456       N  0.41305570  0.59893602  0.67987113    -0.02300
C1457       C  0.41436761  0.63342996  0.67021379     0.00300
C1458       C  0.44567327  0.64819518  0.68473120    -0.22600
C1459       C  0.46360597  0.62154895  0.70347251    -0.22800
C1460       C  0.44241023  0.59132558  0.70056848     0.00200
H1461       H  0.45471797  0.67534384  0.68187813     0.14000
H1462       H  0.48899397  0.62418302  0.71780591     0.14000
N1463       N  0.08178552  0.89167951  0.80059573    -0.02300
C1464       C  0.04585382  0.89841133  0.80099036     0.00300
C1465       C  0.03134387  0.88087207  0.82965313    -0.22600
C1466       C  0.05957326  0.86313559  0.84679455    -0.22800
C1467       C  0.09053128  0.86940768  0.82760806     0.00200
H1468       H  0.50627388  0.88756000  0.83914464     0.14000
H1469       H  0.05738507  0.84667214  0.87000686     0.14000
N1470       N  0.29496090  0.77164261  0.96938792    -0.02300
C1471       C  0.28534224  0.76744619  0.93495696     0.00300
C1472       C  0.30029294  0.73640265  0.92246881    -0.22600
C1473       C  0.31908711  0.72095542  0.95035460    -0.22800
C1474       C  0.31577851  0.74322808  0.97917448     0.00200
H1475       H  0.29749128  0.72583670  0.89604289     0.14000
H1476       H  0.33336958  0.69598259  0.94963553     0.14000
C1477       C  0.13929108  0.00408959  0.58337502     0.81400
N1478       N  0.14082322  0.98274311  0.55462964    -0.76900
C1479       C  0.16716400  0.98792291  0.53059946     0.83900
N1480       N  0.18636846  0.01864884  0.53216940    -0.76800
C1481       C  0.19907666  0.54149252  0.55910098     0.84000
N1482       N  0.15708168  0.03541225  0.58261696    -0.78500
Fe1483     Fe  0.44827954  0.93175355  0.76511983     1.65800
Fe1484     Fe  0.50581025  0.49819556  0.74592602     1.73200
Fe1485     Fe  0.43029740  0.98380643  0.69526726     1.54400
O1486       O  0.43559180  0.93490165  0.67288236    -0.80500
O1487       O  0.48257818  0.54664349  0.72584762    -0.78800
O1488       O  0.42467251  0.90282656  0.72117462    -0.83000
O1489       O  0.39935669  0.95491555  0.77453216    -0.77800
O1490       O  0.47698713  0.50425161  0.66557772    -0.79600
O1491       O  0.48694711  0.50956197  0.79518198    -0.82300
C1492       C  0.37512013  0.95325645  0.75090175     0.98400
C1493       C  0.42194583  0.90776977  0.68758215     1.05900
O1494       O  0.46197196  0.97069285  0.73458562    -1.11300
O1495       O  0.03239792  0.95390977  0.76987998    -0.73800
O1496       O  0.49731846  0.90716137  0.75965345    -0.77300
O1497       O  0.38215528  0.96354730  0.71949878    -0.77900
C1498       C  0.02439019  0.92089074  0.77500730     0.97300
O1499       O  0.46979572  0.95633212  0.81146726    -0.75900
O1500       O  0.52684441  0.49023305  0.69619151    -0.81100
C1501       C  0.45040901  0.55544088  0.71597849     0.99900
C1502       C  0.51174617  0.50487944  0.66948962     1.05900
O1503       O  0.42489628  0.53294717  0.71622007    -0.76700
C1504       C  0.48262381  0.48648047  0.81901260     1.04200
C1505       C  0.27747608  0.86581727  0.98753234    -0.27000
C1506       C  0.25431121  0.86373519  0.01611587     0.06600
C1507       C  0.24840226  0.83087718  0.03267227     0.26200
C1508       C  0.26434984  0.80025777  0.01904688    -0.11500
C1509       C  0.28612306  0.80260479  0.98914806    -0.25400
C1510       C  0.29291268  0.83585092  0.97415959     0.37000
C1511       C  0.23167488  0.89634068  0.51484695     0.06600
F1512       F  0.22754824  0.83173790  0.55637882    -0.19200
H1513       H  0.25778931  0.77464441  0.03016293     0.16500
F1514       F  0.31060610  0.83912300  0.94352043    -0.22900
H1515       H  0.28116110  0.89035692  0.97316342     0.18200
C1516       C  0.24631844  0.93051916  0.51135947     0.26200
C1517       C  0.22394234  0.95977726  0.51155953    -0.11500
C1518       C  0.18691385  0.95623063  0.51867865    -0.25500
C1519       C  0.17212120  0.92189282  0.52196021     0.37200
C1520       C  0.19426565  0.89225911  0.51910108    -0.27100
F1521       F  0.28253087  0.93589398  0.50871394    -0.19200
H1522       H  0.23654894  0.98546074  0.50863987     0.16400
F1523       F  0.13680193  0.91682533  0.52989801    -0.22900
H1524       H  0.18142142  0.86781210  0.02295958     0.18300
C1525       C  0.14391859  0.94800650  0.74979624    -0.27000
C1526       C  0.13529641  0.93579242  0.71577274     0.06600
C1527       C  0.11319772  0.90573952  0.71095831     0.26200
C1528       C  0.09790383  0.88973060  0.73970421    -0.11500
C1529       C  0.10460599  0.90306712  0.77331585    -0.25400
C1530       C  0.12851081  0.93148314  0.77877149     0.37000
C1531       C  0.14403545  0.95663652  0.68484361     0.06600
F1532       F  0.10326304  0.89416275  0.67831628    -0.19200
H1533       H  0.07820394  0.86884882  0.73568596     0.16500
F1534       F  0.13420427  0.94488978  0.81158196    -0.22900
H1535       H  0.16076619  0.97129680  0.75364386     0.18200
C1536       C  0.13019507  0.99102148  0.68094205     0.26200
C1537       C  0.12854692  0.00634646  0.64763817    -0.11500
C1538       C  0.13915369  0.98695609  0.61797233    -0.25500
C1539       C  0.15584363  0.95372063  0.62280755     0.37200
C1540       C  0.15867188  0.93909159  0.65607028    -0.27100
F1541       F  0.11607339  0.00868688  0.70869553    -0.19200
H1542       H  0.11857485  0.03308407  0.64496621     0.16400
F1543       F  0.17047717  0.93548753  0.59586151    -0.22900
H1544       H  0.17011192  0.91282428  0.65909218     0.18300
C1545       C  0.32381623  0.55829414  0.66390613    -0.27000
C1546       C  0.33124242  0.53699150  0.63447990     0.06600
C1547       C  0.36705588  0.53204596  0.62389685     0.26200
C1548       C  0.39468132  0.55100463  0.64064341    -0.11500
C1549       C  0.38642214  0.57461905  0.66778770    -0.25400
C1550       C  0.35135873  0.57712926  0.68047058     0.37000
C1551       C  0.30087139  0.52745268  0.61133725     0.06600
F1552       F  0.37479297  0.51105298  0.59595896    -0.19200
H1553       H  0.42208921  0.54912830  0.63115413     0.16500
F1554       F  0.34355189  0.59990606  0.70697597    -0.22900
H1555       H  0.29627791  0.56293225  0.67207751     0.18200
C1556       C  0.26939490  0.51392820  0.62622032     0.26200
C1557       C  0.23653369  0.51877714  0.60907541    -0.11500
C1558       C  0.23465422  0.53576810  0.57606027    -0.25500
C1559       C  0.26688974  0.54448177  0.55896478     0.37200
C1560       C  0.29984239  0.54104937  0.57688900    -0.27100
F1561       F  0.27010515  0.49911938  0.65884708    -0.19200
H1562       H  0.21262441  0.50981180  0.62234399     0.16400
F1563       F  0.26642713  0.55814007  0.52597678    -0.22900
H1564       H  0.32402923  0.55164751  0.56498339     0.18300
C1565       C  0.25857602  0.01394037  0.80059280    -0.27000
C1566       C  0.24114107  0.03356450  0.82676631     0.06600
C1567       C  0.24493069  0.56668155  0.82656804     0.26200
C1568       C  0.27772320  0.57841897  0.81282080    -0.11500
C1569       C  0.29977552  0.55467587  0.79449149    -0.25400
C1570       C  0.28557268  0.52190677  0.78393105     0.37000
C1571       C  0.21821864  0.01486408  0.85204456     0.06600
F1572       F  0.22664891  0.58798793  0.84893301    -0.19200
H1573       H  0.28831617  0.60396522  0.82114956     0.16500
F1574       F  0.30994983  0.00531972  0.76457810    -0.22900
H1575       H  0.24908904  0.98757267  0.79372977     0.18200
C1576       C  0.18040602  0.01764633  0.85130437     0.26200
C1577       C  0.15997691  0.99945590  0.87635767    -0.11500
C1578       C  0.17721105  0.97854836  0.90219140    -0.25500
C1579       C  0.21508145  0.97667055  0.90331749     0.37200
C1580       C  0.23537204  0.99470739  0.87841095    -0.27100
F1581       F  0.16341014  0.03699104  0.82592435    -0.19200
H1582       H  0.13072603  0.00037722  0.87480136     0.16400
F1583       F  0.23224563  0.95650727  0.92796236    -0.22900
H1584       H  0.25971022  0.49285609  0.87554773     0.18300
C1585       C  0.36525393  0.76162993  0.76193268    -0.27000
C1586       C  0.35582299  0.73261645  0.78302457     0.06600
C1587       C  0.31906801  0.72485077  0.78841656     0.26200
C1588       C  0.29246606  0.74335535  0.76989389    -0.11500
C1589       C  0.30200140  0.77019786  0.74624884    -0.25400
C1590       C  0.33835889  0.78068382  0.74399313     0.37000
C1591       C  0.38231870  0.70459320  0.79074603     0.06600
F1592       F  0.30904144  0.69650799  0.80813513    -0.19200
H1593       H  0.26467511  0.73494495  0.77243820     0.16500
F1594       F  0.34785372  0.80761322  0.72229309    -0.22900
H1595       H  0.39343594  0.76771331  0.75728642     0.18200
C1596       C  0.39327799  0.68358467  0.76233371     0.26200
C1597       C  0.40022913  0.64774277  0.76757039    -0.11500
C1598       C  0.39862373  0.63315295  0.80128770    -0.25500
C1599       C  0.39474493  0.65578826  0.83054353     0.37200
C1600       C  0.38592893  0.69138974  0.82514028    -0.27100
F1601       F  0.39068208  0.69604901  0.72891630    -0.19200
H1602       H  0.40216420  0.63056213  0.74500248     0.16400
F1603       F  0.39327864  0.64248708  0.86373321    -0.22900
H1604       H  0.37752452  0.70729601  0.84733278     0.18300
C1605       C  0.42565066  0.57658238  0.01511116    -0.27000
C1606       C  0.40842161  0.59154453  0.98550417     0.06600
C1607       C  0.41002803  0.62842327  0.98031231     0.26200
C1608       C  0.93540856  0.65050065  0.99958636    -0.11500
C1609       C  0.45136792  0.63231402  0.53470191    -0.25400
C1610       C  0.44853551  0.59599426  0.54240817     0.37000
C1611       C  0.39698403  0.56899960  0.95569399     0.06600
F1612       F  0.90160394  0.64246552  0.94670670    -0.19200
H1613       H  0.94134402  0.67726915  0.99159955     0.16500
F1614       F  0.46699360  0.58210120  0.57028032    -0.22900
H1615       H  0.42491037  0.54817596  0.01925688     0.18200
C1616       C  0.42386950  0.55152613  0.93660544     0.26200
C1617       C  0.41721183  0.54147101  0.90178397    -0.11500
C1618       C  0.38360218  0.54806524  0.88586589    -0.25500
C1619       C  0.35529503  0.56171080  0.90628036     0.37200
C1620       C  0.36213012  0.57232695  0.94104573    -0.27100
F1621       F  0.45800457  0.54883827  0.94990836    -0.19200
H1622       H  0.43929815  0.53190868  0.88614576     0.16400
F1623       F  0.32268375  0.56946035  0.89129794    -0.22900
H1624       H  0.34132102  0.58622188  0.95530318     0.18300
C1625       C  0.39687830  0.89053371  0.85883172    -0.27000
C1626       C  0.37579940  0.89687150  0.88858545     0.06600
C1627       C  0.34537120  0.91899308  0.88580563     0.26200
C1628       C  0.33376057  0.93053116  0.85274182    -0.11500
C1629       C  0.35140369  0.91883984  0.82250287    -0.25400
C1630       C  0.38391389  0.90007338  0.82567989     0.37000
C1631       C  0.37988262  0.87318205  0.91899756     0.06600
F1632       F  0.32401625  0.92512360  0.91395239    -0.19200
H1633       H  0.30846771  0.94478854  0.85026532     0.16500
F1634       F  0.40029871  0.88681697  0.79678254    -0.22900
H1635       H  0.42062692  0.87385033  0.86076310     0.18200
C1636       C  0.37989360  0.83631780  0.91338961     0.26200
C1637       C  0.38026869  0.81328214  0.94181664    -0.11500
C1638       C  0.38075002  0.82624135  0.97651853    -0.25500
C1639       C  0.37935037  0.86331883  0.98201691     0.37200
C1640       C  0.37927208  0.88647271  0.95339896    -0.27100
F1641       F  0.37713026  0.82242127  0.88041927    -0.19200
H1642       H  0.37934660  0.78515271  0.93648573     0.16400
F1643       F  0.37757091  0.87747920  0.01473237    -0.22900
H1644       H  0.37828134  0.91479064  0.95806827     0.18300
C1645       C  0.98734208  0.73884600  0.93374019    -0.27000
C1646       C  0.02134654  0.73581224  0.95012788     0.06600
C1647       C  0.02387286  0.73338411  0.98694976     0.26200
C1648       C  0.99336427  0.73837888  0.00708680    -0.11500
C1649       C  0.95965571  0.74511334  0.99107081    -0.25400
C1650       C  0.95649327  0.74278786  0.95398216     0.37000
C1651       C  0.05430982  0.73458573  0.92919354     0.06600
F1652       F  0.05607747  0.72735850  0.00353178    -0.19200
H1653       H  0.00302144  0.74396563  0.53628615     0.16500
F1654       F  0.42596059  0.73966970  0.93981561    -0.22900
H1655       H  0.98481420  0.73955274  0.90527594     0.18200
C1656       C  0.05764892  0.70928699  0.90245341     0.26200
C1657       C  0.09159010  0.70182026  0.88937602    -0.11500
C1658       C  0.12236799  0.71931037  0.90271723    -0.25500
C1659       C  0.11853386  0.74725278  0.92661394     0.37200
C1660       C  0.08443263  0.75521577  0.93941540    -0.27100
F1661       F  0.02919116  0.68860883  0.89244365    -0.19200
H1662       H  0.09450653  0.67907391  0.87239728     0.16400
F1663       F  0.14811187  0.76332285  0.94108653    -0.22900
H1664       H  0.08203407  0.77527105  0.95969804     0.18300
C1665       C  0.00700267  0.95751207  0.55547386    -0.27000
C1666       C  0.01544334  0.92687882  0.57489757     0.06600
C1667       C  0.04032393  0.92895881  0.60312036     0.26200
C1668       C  0.05330396  0.96175479  0.61396579    -0.11500
C1669       C  0.04179263  0.99277170  0.59700453    -0.25400
C1670       C  0.01763458  0.49142623  0.56287325     0.37000
C1671       C  0.49048190  0.89754949  0.56591555     0.06600
F1672       F  0.04854001  0.90011519  0.62297863    -0.19200
H1673       H  0.06932619  0.96325322  0.63797842     0.16500
F1674       F  0.00462383  0.52173327  0.54837458    -0.22900
H1675       H  0.98798786  0.95622826  0.53350119     0.18200
C1676       C  0.45272574  0.89881781  0.56905878     0.26200
C1677       C  0.43281246  0.86754267  0.56936294    -0.11500
C1678       C  0.44974444  0.83455258  0.56492785    -0.25500
C1679       C  0.98783204  0.83079427  0.56953393     0.37200
C1680       C  0.00920031  0.86128236  0.57020879    -0.27100
F1681       F  0.43538239  0.92998604  0.57450787    -0.19200
H1682       H  0.40380573  0.86926146  0.57215483     0.16400
F1683       F  0.00466928  0.79897041  0.56951686    -0.22900
H1684       H  0.03837029  0.85866987  0.57053815     0.18300
C1685       C  0.50238089  0.83793424  0.66940463    -0.27000
C1686       C  0.50303747  0.80935199  0.69263184     0.06600
C1687       C  0.47071529  0.79116375  0.70015236     0.26200
C1688       C  0.43793223  0.80282385  0.68537445    -0.11500
C1689       C  0.43740129  0.83264615  0.66334849    -0.25400
C1690       C  0.47005767  0.84959002  0.65518046     0.37000
C1691       C  0.03532179  0.80425096  0.71745477     0.06600
F1692       F  0.47069557  0.76334957  0.72281891    -0.19200
H1693       H  0.41288169  0.79014426  0.69281986     0.16500
F1694       F  0.47032436  0.88022767  0.63691789    -0.22900
H1695       H  0.02499870  0.85514083  0.67038026     0.18200
C1696       C  0.06751147  0.80228181  0.69841470     0.26200
C1697       C  0.10054048  0.79979827  0.71600436    -0.11500
C1698       C  0.10222583  0.79739830  0.75299429    -0.25500
C1699       C  0.06983494  0.80002854  0.77206139     0.37200
C1700       C  0.03676611  0.80378126  0.75434071    -0.27100
F1701       F  0.06696680  0.80226985  0.66261874    -0.19200
H1702       H  0.12461050  0.79774821  0.70023539     0.16400
F1703       F  0.06972640  0.79708001  0.80767409    -0.22900
H1704       H  0.01229203  0.80642781  0.76944505     0.18300
C1705       C  0.11678776  0.63950341  0.81284299    -0.27000
C1706       C  0.07972140  0.64301787  0.80501593     0.06600
C1707       C  0.06529377  0.67654912  0.79792857     0.26200
C1708       C  0.08749018  0.70618519  0.79966762    -0.11500
C1709       C  0.12466712  0.70294675  0.80761304    -0.25400
C1710       C  0.13924586  0.66911377  0.81359451     0.37000
C1711       C  0.05582652  0.61256143  0.81025064     0.06600
F1712       F  0.02972483  0.68065416  0.78946835    -0.19200
H1713       H  0.07547594  0.73145359  0.79348696     0.16500
F1714       F  0.17512703  0.66461946  0.82001789    -0.22900
H1715       H  0.12824267  0.61391623  0.81944033     0.18200
C1716       C  0.06597618  0.57864129  0.79875227     0.26200
C1717       C  0.05077224  0.54886417  0.81430985    -0.11500
C1718       C  0.02469486  0.55309194  0.84027251    -0.25500
C1719       C  0.01122293  0.58663768  0.84826295     0.37200
C1720       C  0.02685209  0.61633990  0.83339132    -0.27100
F1721       F  0.09256586  0.57448787  0.77481874    -0.19200
H1722       H  0.06080378  0.52273085  0.80790097     0.16400
F1723       F  0.48677145  0.58859134  0.87430569    -0.22900
H1724       H  0.01859809  0.64217476  0.84261401     0.18300
C1725       C  0.16915151  0.66916807  0.60278954    -0.27000
C1726       C  0.18650009  0.65541047  0.63292497     0.06600
C1727       C  0.21205506  0.62832617  0.62980260     0.26200
C1728       C  0.22489714  0.61996112  0.59685375    -0.11500
C1729       C  0.21065729  0.63671210  0.56696633    -0.25400
C1730       C  0.18137030  0.65983710  0.56963708     0.37000
C1731       C  0.18531723  0.67588702  0.66540189     0.06600
F1732       F  0.22829803  0.61393105  0.65873707    -0.19200
H1733       H  0.24849107  0.60341819  0.59496025     0.16500
F1734       F  0.16805346  0.67673265  0.54070614    -0.22900
H1735       H  0.14937159  0.69012852  0.60493654     0.18200
C1736       C  0.21768861  0.68970241  0.67995544     0.26200
C1737       C  0.21656782  0.71244200  0.70855727    -0.11500
C1738       C  0.18343510  0.72271400  0.72197795    -0.25500
C1739       C  0.15103087  0.70897390  0.70749990     0.37200
C1740       C  0.15205105  0.68561336  0.67929785    -0.27100
F1741       F  0.25026791  0.68241485  0.66562404    -0.19200
H1742       H  0.24154991  0.72224421  0.71970152     0.16400
F1743       F  0.11847814  0.71784117  0.72093535    -0.22900
H1744       H  0.12698054  0.67549811  0.66795857     0.18300
N1745       N  0.73098892  0.13367161  0.03899327    -0.02300
C1746       C  0.76171316  0.15269124  0.03471436     0.00300
C1747       C  0.77282383  0.14903927  0.00026974    -0.22600
C1748       C  0.74759563  0.12763028  0.98310484    -0.22800
C1749       C  0.72161133  0.11866505  0.00748532     0.00200
H1750       H  0.79683493  0.16028380  0.98879752     0.14000
H1751       H  0.75273019  0.10591587  0.46095775     0.14000
N1752       N  0.51702516  0.02289200  0.36472435    -0.02300
C1753       C  0.52604197  0.02069785  0.39920868     0.00300
C1754       C  0.51064633  0.49018511  0.41245554    -0.22600
C1755       C  0.99470731  0.47437021  0.38378173    -0.22800
C1756       C  0.99716911  0.99675017  0.35509204     0.00200
H1757       H  0.51394779  0.48029831  0.43906568     0.14000
H1758       H  0.98214294  0.44846508  0.38525523     0.14000
N1759       N  0.90456580  0.34937828  0.15544237    -0.02300
C1760       C  0.89841495  0.38317524  0.16586369     0.00300
C1761       C  0.86565630  0.39456420  0.15213016    -0.22600
C1762       C  0.85086905  0.36646706  0.13337324    -0.22800
C1763       C  0.87531256  0.33877904  0.13557218     0.00200
H1764       H  0.85359783  0.42039259  0.15565567     0.14000
H1765       H  0.82482532  0.36619435  0.11996857     0.14000
C1766       C  0.63933404  0.27829606  0.26243402     0.81400
N1767       N  0.63519741  0.26399751  0.29487437    -0.76900
C1768       C  0.65210437  0.23319565  0.30282406     0.83900
N1769       N  0.68316432  0.22601038  0.28605919    -0.76800
C1770       C  0.68659218  0.23771982  0.25271204     0.84000
N1771       N  0.66633822  0.26575701  0.24202523    -0.78500
Fe1772     Fe  0.75474225  0.30068581  0.33708659     1.65800
Fe1773     Fe  0.68398332  0.31976383  0.38851725     1.73200
Fe1774     Fe  0.70241977  0.37170558  0.31874397     1.54400
O1775       O  0.75340246  0.39266398  0.32556549    -0.80500
O1776       O  0.63568389  0.34100647  0.36417597    -0.78800
O1777       O  0.78482429  0.34407175  0.31364822    -0.83000
O1778       O  0.73455711  0.29043948  0.28838696    -0.77800
O1779       O  0.68118953  0.40174729  0.36298620    -0.79600
O1780       O  0.67222010  0.27054856  0.36874969    -0.82300
C1781       C  0.73330361  0.31397337  0.26479523     0.98400
C1782       C  0.77980814  0.37779116  0.31054130     1.05900
O1783       O  0.71390679  0.33097926  0.34826676    -1.11300
O1784       O  0.72888827  0.29630374  0.41736589    -0.73800
O1785       O  0.77777216  0.30778147  0.38569701    -0.77300
O1786       O  0.72159768  0.34541974  0.27163892    -0.77900
C1787       C  0.76311148  0.29319786  0.41207029     0.99300
O1788       O  0.72849465  0.25413765  0.35801244    -0.75900
O1789       O  0.69351707  0.36874544  0.41027264    -0.81100
C1790       C  0.62752160  0.35250690  0.33315366     0.99900
C1791       C  0.67931403  0.39618548  0.39653515     1.05900
O1792       O  0.65099215  0.35354163  0.30917409    -0.76700
C1793       C  0.69645274  0.24697550  0.36900103     1.04200
N1794       N  0.54731217  0.02548603  0.11462978    -0.02300
C1795       C  0.53388372  0.03093530  0.14748006     0.00300
C1796       C  0.54233708  0.06527024  0.15769987    -0.22600
C1797       C  0.56102775  0.08105060  0.13032418    -0.22800
C1798       C  0.56416071  0.05598676  0.10384039     0.00200
H1799       H  0.53499026  0.07790319  0.18216551     0.14000
H1800       H  0.57068105  0.10816188  0.12966814     0.14000
N1801       N  0.65649467  0.20089200  0.40040538    -0.02300
C1802       C  0.66273062  0.16994050  0.41774007     0.00300
C1803       C  0.69850957  0.16055532  0.41361990    -0.22600
C1804       C  0.71473417  0.18690020  0.39388505    -0.22800
C1805       C  0.68841435  0.21179267  0.38592841     0.00200
H1806       H  0.71158346  0.13717544  0.42395341     0.14000
H1807       H  0.74299059  0.18812982  0.38695201     0.14000
N1808       N  0.83212922  0.41641158  0.28788226    -0.02300
C1809       C  0.80010698  0.39913091  0.28339274     0.00300
C1810       C  0.78732446  0.40565318  0.24950741    -0.22600
C1811       C  0.81277135  0.42684854  0.23291757    -0.22800
C1812       C  0.84041479  0.43323350  0.25715726     0.00200
H1813       H  0.76231006  0.39591451  0.23787133     0.14000
H1814       H  0.81135644  0.43609526  0.20595885     0.14000
C1815       C  0.93333306  0.25596032  0.51373218     0.81400
N1816       N  0.94071364  0.27399590  0.04446530    -0.76900
C1817       C  0.92490569  0.30530435  0.05236387     0.83900
N1818       N  0.89467301  0.31219880  0.53584614    -0.76800
C1819       C  0.88755592  0.29779495  0.50387854     0.84000
N1820       N  0.90337975  0.26657029  0.49592288    -0.78500
Fe1821     Fe  0.55959935  0.05087283  0.99494882     1.65800
Fe1822     Fe  0.62865405  0.07255728  0.44215454     1.73200
Fe1823     Fe  0.61323838  0.12027173  0.01396680     1.54400
O1824       O  0.56338110  0.14282627  0.00661557    -0.80500
O1825       O  0.67697596  0.09196273  0.46815541    -0.78800
O1826       O  0.52990604  0.09516272  0.01808674    -0.83000
O1827       O  0.57893427  0.03951953  0.04466054    -0.77800
O1828       O  0.63458183  0.15182402  0.47216571    -0.79600
O1829       O  0.64093591  0.02238885  0.45735676    -0.82300
C1830       C  0.58016284  0.06348206  0.06805275     0.98400
C1831       C  0.53594325  0.12890137  0.02100255     1.05900
O1832       O  0.60072654  0.08074594  0.98355199    -1.11300
O1833       O  0.58329758  0.05019546  0.41298815    -0.73800
O1834       O  0.53593613  0.05997758  0.44687870    -0.77300
O1835       O  0.59211800  0.09468884  0.06046598    -0.77900
C1836       C  0.54947091  0.04620531  0.41974395     0.97300
O1837       O  0.58747931  0.50407173  0.97465326    -0.75900
O1838       O  0.61966608  0.12285704  0.42321963    -0.81100
C1839       C  0.68644009  0.10050216  0.99902887     0.99900
C1840       C  0.63594968  0.14840831  0.43851286     1.05900
O1841       O  0.66302634  0.09875610  0.02294082    -0.76700
C1842       C  0.61648377  0.49743601  0.46018962     1.04200
N1843       N  0.47940980  0.15606763  0.05051772    -0.02300
C1844       C  0.51572219  0.15220655  0.04675027     0.00300
C1845       C  0.53308228  0.17526994  0.07006854    -0.22600
C1846       C  0.50671640  0.19360865  0.08825875    -0.22800
C1847       C  0.97119579  0.18029542  0.07519918     0.00200
H1848       H  0.56201242  0.17871826  0.07331293     0.14000
H1849       H  0.51130522  0.21424147  0.10766392     0.14000
N1850       N  0.77725765  0.28464063  0.22193413    -0.02300
C1851       C  0.77615024  0.27607793  0.18694506     0.00300
C1852       C  0.74525216  0.29106278  0.17201265    -0.22600
C1853       C  0.72705219  0.30878613  0.19825242    -0.22800
C1854       C  0.74664458  0.30384601  0.22901388     0.00200
H1855       H  0.73641625  0.28886180  0.14477960     0.14000
H1856       H  0.70128744  0.32209902  0.19546867     0.14000
N1857       N  0.65270574  0.45341716  0.42330911    -0.02300
C1858       C  0.65466015  0.41762587  0.41982150     0.00300
C1859       C  0.62835550  0.40242637  0.44073776    -0.22600
C1860       C  0.60978263  0.42975078  0.45695296    -0.22800
C1861       C  0.62601462  0.46107979  0.44677513     0.00200
H1862       H  0.62270895  0.37438988  0.44341433     0.14000
H1863       H  0.58753780  0.42688082  0.47495272     0.14000
C1864       C  0.88966074  0.10361734  0.30680231     0.81400
N1865       N  0.85842521  0.09184690  0.29128455    -0.76900
C1866       C  0.84218015  0.06178305  0.30271761     0.83900
N1867       N  0.85714738  0.04384460  0.33019908    -0.76800
C1868       C  0.88651938  0.05676884  0.34765577     0.84000
N1869       N  0.90363728  0.08577349  0.33480576    -0.78500
Fe1870     Fe  0.85937014  0.17768850  0.07080633     1.65800
Fe1871     Fe  0.80854508  0.24877549  0.08970146     1.73200
Fe1872     Fe  0.88065926  0.22900700  0.14114776     1.54400
O1873       O  0.87133471  0.17965020  0.16130695    -0.80500
O1874       O  0.83531888  0.29459701  0.11092031    -0.78800
O1875       O  0.88225992  0.14701294  0.11402901    -0.83000
O1876       O  0.91043494  0.19415443  0.06077624    -0.77800
O1877       O  0.83614294  0.25174893  0.17110285    -0.79600
O1878       O  0.82639624  0.26063248  0.04046441    -0.82300
C1879       C  0.93484982  0.19534887  0.08441027     0.98400
C1880       C  0.88606836  0.15291822  0.14734936     1.05900
O1881       O  0.85003715  0.21881848  0.10014973    -1.11300
O1882       O  0.77776360  0.20671441  0.06542859    -0.73800
O1883       O  0.80832993  0.15790305  0.07833164    -0.77300
O1884       O  0.92820489  0.20779246  0.11542208    -0.77900
C1885       C  0.78219914  0.17309870  0.06258138     0.97300
O1886       O  0.83970846  0.20530406  0.02451599    -0.75900
O1887       O  0.78779618  0.23852678  0.13837622    -0.81100
C1888       C  0.86754360  0.30238423  0.12171889     0.99900
C1889       C  0.80158718  0.25310537  0.16560763     1.05900
O1890       O  0.89207636  0.27905803  0.12349633    -0.76700
C1891       C  0.82879402  0.23695242  0.01691326     1.04200
N1892       N  0.91355811  0.09748109  0.17619357    -0.02300
C1893       C  0.91311641  0.13271311  0.16970160     0.00300
C1894       C  0.94132412  0.14828489  0.18878163    -0.22600
C1895       C  0.95888377  0.12149933  0.20753238    -0.22800
C1896       C  0.94050889  0.09035727  0.19992933     0.00200
H1897       H  0.94823345  0.17618504  0.18937034     0.14000
H1898       H  0.98181329  0.12468369  0.22532327     0.14000
N1899       N  0.58346670  0.39171418  0.29897241    -0.02300
C1900       C  0.54761032  0.39877872  0.29854903     0.00300
C1901       C  0.53180696  0.37974587  0.32557503    -0.22600
C1902       C  0.55915147  0.36076208  0.34266611    -0.22800
C1903       C  0.59086053  0.36787022  0.32502330     0.00200
H1904       H  0.00483052  0.37972201  0.33512177     0.14000
H1905       H  0.55591640  0.34298808  0.36477087     0.14000
N1906       N  0.79387541  0.27236457  0.46928084    -0.02300
C1907       C  0.78606440  0.26870228  0.43440627     0.00300
C1908       C  0.80318419  0.23881489  0.42179121    -0.22600
C1909       C  0.82118768  0.22328590  0.45012960    -0.22800
C1910       C  0.81533572  0.24446867  0.47931150     0.00200
H1911       H  0.80231088  0.22903125  0.39497586     0.14000
H1912       H  0.83676608  0.19906644  0.44944021     0.14000
C1913       C  0.64200633  0.51011354  0.08391897     0.81400
N1914       N  0.64064109  0.48851411  0.05531463    -0.76900
C1915       C  0.66567746  0.49210465  0.02978523     0.83900
N1916       N  0.68517502  0.52263164  0.02893167    -0.76800
C1917       C  0.70043032  0.03669120  0.05535885     0.84000
N1918       N  0.66183194  0.54024296  0.08214042    -0.78500
Fe1919     Fe  0.94822652  0.43099800  0.26515231     1.65800
Fe1920     Fe  0.00580596  0.99901941  0.24554573     1.73200
Fe1921     Fe  0.93166662  0.48184632  0.19392112     1.54400
O1922       O  0.93763683  0.43242618  0.17301316    -0.80500
O1923       O  0.98107596  0.04634333  0.22501016    -0.78800
O1924       O  0.92497826  0.40159443  0.22158436    -0.83000
O1925       O  0.89917142  0.45399832  0.27352256    -0.77800
O1926       O  0.97756542  0.00276994  0.16438847    -0.79600
O1927       O  0.98732810  0.01096303  0.29478453    -0.82300
C1928       C  0.87541941  0.45204318  0.24938566     0.98400
C1929       C  0.92300267  0.40596837  0.18793577     1.05900
O1930       O  0.96231620  0.46963924  0.23423886    -1.11300
O1931       O  0.53412143  0.45535941  0.26949738    -0.73800
O1932       O  0.99699299  0.40631141  0.26005987    -0.77300
O1933       O  0.88299084  0.46212105  0.21798033    -0.77900
C1934       C  0.52707991  0.42190226  0.27255114     0.97300
O1935       O  0.96945608  0.45602522  0.31161733    -0.75900
O1936       O  0.02722323  0.99073814  0.19595702    -0.81100
C1937       C  0.94895733  0.05429063  0.21422648     0.99900
C1938       C  0.01216375  0.00461504  0.16884389     1.05900
O1939       O  0.92399684  0.03116612  0.21284594    -0.76700
C1940       C  0.98330869  0.98810322  0.31886470     1.04200
C1941       C  0.77381872  0.36628432  0.48491403    -0.27000
C1942       C  0.74941480  0.36438578  0.51254696     0.06600
C1943       C  0.74356022  0.33174861  0.52959574     0.26200
C1944       C  0.76075761  0.30114807  0.51733680    -0.11500
C1945       C  0.78416272  0.30336659  0.48863576    -0.25400
C1946       C  0.79131556  0.33652606  0.47354343     0.37000
C1947       C  0.72758650  0.39794352  0.01782785     0.06600
F1948       F  0.72189017  0.33146808  0.05682021    -0.19200
H1949       H  0.75415264  0.27562203  0.52862374     0.16500
F1950       F  0.81142452  0.33959537  0.44429024    -0.22900
H1951       H  0.77762384  0.39053943  0.47011853     0.18200
C1952       C  0.74358047  0.43163931  0.01484908     0.26200
C1953       C  0.72230288  0.46165272  0.01396318    -0.11500
C1954       C  0.68492208  0.45947275  0.01973855    -0.25500
C1955       C  0.66893579  0.42574063  0.02379920     0.37200
C1956       C  0.69002813  0.39524459  0.02179682    -0.27100
F1957       F  0.78004017  0.43571278  0.01302513    -0.19200
H1958       H  0.73595069  0.48682980  0.01106299     0.16400
F1959       F  0.63336606  0.42221330  0.03146647    -0.22900
H1960       H  0.67644624  0.36957634  0.52130427     0.18300
C1961       C  0.64180208  0.45280400  0.24961108    -0.27000
C1962       C  0.63615299  0.43915691  0.21556228     0.06600
C1963       C  0.61860034  0.40629058  0.21081004     0.26200
C1964       C  0.60433998  0.38898226  0.23945578    -0.11500
C1965       C  0.60729625  0.40401625  0.27283995    -0.25400
C1966       C  0.62719027  0.43519783  0.27835050     0.37000
C1967       C  0.64376277  0.46062332  0.18454411     0.06600
F1968       F  0.61165424  0.39280308  0.17820083    -0.19200
H1969       H  0.58783278  0.36564285  0.23525982     0.16500
F1970       F  0.62942316  0.45001864  0.31085574    -0.22900
H1971       H  0.65552059  0.47795217  0.25359846     0.18200
C1972       C  0.62923823  0.49485619  0.18084696     0.26200
C1973       C  0.62941881  0.51137411  0.14803617    -0.11500
C1974       C  0.64164067  0.49297389  0.11846721    -0.25500
C1975       C  0.65903322  0.46009850  0.12318606     0.37200
C1976       C  0.66047178  0.44445761  0.15605406    -0.27100
F1977       F  0.61285564  0.51127334  0.20813185    -0.19200
H1978       H  0.61919252  0.53802365  0.14559210     0.16400
F1979       F  0.67622644  0.44361736  0.09658684    -0.22900
H1980       H  0.67312154  0.41871659  0.15894985     0.18300
C1981       C  0.82943021  0.04930600  0.15535942    -0.27000
C1982       C  0.83724880  0.03552881  0.12180235     0.06600
C1983       C  0.87264128  0.03788169  0.10904488     0.26200
C1984       C  0.89879243  0.05657918  0.12835769    -0.11500
C1985       C  0.88962073  0.07262859  0.16023477    -0.25400
C1986       C  0.85557572  0.06758478  0.17452741     0.37000
C1987       C  0.80664681  0.02518314  0.09886477     0.06600
F1988       F  0.88128838  0.02382172  0.07734832    -0.19200
H1989       H  0.92557071  0.06016921  0.11784386     0.16500
F1990       F  0.84707170  0.08263947  0.20581149    -0.22900
H1991       H  0.80229574  0.04852526  0.16565229     0.18200
C1992       C  0.77739922  0.00737306  0.11375122     0.26200
C1993       C  0.74313513  0.01178750  0.09942565    -0.11500
C1994       C  0.73774083  0.03150254  0.06838770    -0.25500
C1995       C  0.76801698  0.04292338  0.04962718     0.37200
C1996       C  0.80232608  0.04107324  0.06549947    -0.27100
F1997       F  0.78134163  0.98888574  0.14428310    -0.19200
H1998       H  0.72091400  0.00039402  0.11326845     0.16400
F1999       F  0.76434900  0.05764023  0.01727778    -0.22900
H2000       H  0.82466820  0.05444904  0.05303194     0.18300
C2001       C  0.75910211  0.51109853  0.30821388    -0.27000
C2002       C  0.74073964  0.53310779  0.33168775     0.06600
C2003       C  0.74700254  0.06930005  0.32736638     0.26200
C2004       C  0.77981023  0.08103168  0.31349708    -0.11500
C2005       C  0.80314836  0.05674313  0.29744309    -0.25400
C2006       C  0.79052949  0.02257604  0.28964768     0.37000
C2007       C  0.71634983  0.51651545  0.35690413     0.06600
F2008       F  0.72745325  0.09163416  0.34762407    -0.19200
H2009       H  0.78922966  0.10753458  0.31991156     0.16500
F2010       F  0.81224784  0.49849055  0.27637326    -0.22900
H2011       H  0.74963322  0.48429374  0.30326522     0.18200
C2012       C  0.67900351  0.51389855  0.35056349     0.26200
C2013       C  0.65748912  0.49495179  0.37406130    -0.11500
C2014       C  0.67339037  0.47794093  0.40324757    -0.25500
C2015       C  0.71052142  0.48135554  0.40992288     0.37200
C2016       C  0.73182607  0.50084662  0.38703402    -0.27100
F2017       F  0.66380239  0.52833561  0.32116989    -0.19200
H2018       H  0.62878320  0.49197272  0.36871111     0.16400
F2019       F  0.72620403  0.46453745  0.43773489    -0.22900
H2020       H  0.76199031  0.99474080  0.37887225     0.18300
C2021       C  0.86923483  0.26950601  0.26067680    -0.27000
C2022       C  0.86206773  0.24080962  0.28305840     0.06600
C2023       C  0.82596006  0.23154608  0.28993758     0.26200
C2024       C  0.79782924  0.24769843  0.27136490    -0.11500
C2025       C  0.80504914  0.27407566  0.24653591    -0.25400
C2026       C  0.84072838  0.28641612  0.24277953     0.37000
C2027       C  0.88939883  0.21311744  0.28910165     0.06600
F2028       F  0.81818719  0.20319806  0.31059244    -0.19200
H2029       H  0.77072566  0.23743070  0.27434167     0.16500
F2030       F  0.84811173  0.31263405  0.21947250    -0.22900
H2031       H  0.89688730  0.27662090  0.25475691     0.18200
C2032       C  0.89516512  0.19017582  0.26064459     0.26200
C2033       C  0.89876033  0.15396629  0.26668051    -0.11500
C2034       C  0.90006067  0.14078747  0.30104818    -0.25500
C2035       C  0.90211416  0.16477625  0.32953134     0.37200
C2036       C  0.89615529  0.20092509  0.32350035    -0.27100
F2037       F  0.88961308  0.20166584  0.22717326    -0.19200
H2038       H  0.89623973  0.13584724  0.24471509     0.16400
F2039       F  0.90378916  0.15291935  0.36328487    -0.22900
H2040       H  0.89178860  0.21830060  0.34577334     0.18300
C2041       C  0.92723750  0.07652798  0.51708384    -0.27000
C2042       C  0.91045357  0.09102312  0.48700246     0.06600
C2043       C  0.91148959  0.12784069  0.48153830     0.26200
C2044       C  0.42785682  0.14664506  0.50780030    -0.11500
C2045       C  0.95129997  0.13333015  0.03205631    -0.25400
C2046       C  0.94791551  0.09719215  0.04012899     0.37000
C2047       C  0.90030953  0.06840712  0.45693713     0.06600
F2048       F  0.38667960  0.13764290  0.46033215    -0.19200
H2049       H  0.42887909  0.17439807  0.50098173     0.16500
F2050       F  0.96607984  0.08340318  0.06820380    -0.22900
H2051       H  0.92688956  0.04815818  0.52141900     0.18200
C2052       C  0.92828982  0.05357207  0.43718815     0.26200
C2053       C  0.92259201  0.04572762  0.40165753    -0.11500
C2054       C  0.88881503  0.05164088  0.38584731    -0.25500
C2055       C  0.85956379  0.06217283  0.40675917     0.37200
C2056       C  0.86544915  0.07074764  0.44217393    -0.27100
F2057       F  0.96234359  0.05179577  0.45082563    -0.19200
H2058       H  0.94529837  0.03843607  0.38567838     0.16400
F2059       F  0.82671150  0.06915342  0.39190234    -0.22900
H2060       H  0.84382890  0.08278318  0.45694147     0.18300
C2061       C  0.89753655  0.38322005  0.35390264    -0.27000
C2062       C  0.87839502  0.39109347  0.38459887     0.06600
C2063       C  0.84981301  0.41563074  0.38305024     0.26200
C2064       C  0.83763939  0.42798644  0.35053474    -0.11500
C2065       C  0.85298364  0.41514248  0.31962907    -0.25400
C2066       C  0.88407314  0.39411183  0.32131732     0.37000
C2067       C  0.88240370  0.36776213  0.41540098     0.06600
F2068       F  0.83043463  0.42380703  0.41203357    -0.19200
H2069       H  0.81351858  0.44418781  0.34912431     0.16500
F2070       F  0.89846731  0.38054104  0.29154601    -0.22900
H2071       H  0.92015732  0.36504331  0.35478851     0.18200
C2072       C  0.88155559  0.33074274  0.41065779     0.26200
C2073       C  0.88108969  0.30837871  0.43962470    -0.11500
C2074       C  0.88103332  0.32215957  0.47401612    -0.25500
C2075       C  0.88018121  0.35933953  0.47859665     0.37200
C2076       C  0.88180835  0.38177704  0.44954740    -0.27100
F2077       F  0.87921562  0.31600967  0.37803166    -0.19200
H2078       H  0.88040446  0.28010179  0.43495512     0.16400
F2079       F  0.87672731  0.37431203  0.51077226    -0.22900
H2080       H  0.88164314  0.41018744  0.45372385     0.18300
C2081       C  0.48562929  0.23025130  0.43113854    -0.27000
C2082       C  0.52108368  0.23388504  0.44414472     0.06600
C2083       C  0.52745811  0.23528443  0.48065215     0.26200
C2084       C  0.49873734  0.23762374  0.50340834    -0.11500
C2085       C  0.46307835  0.23827152  0.49047651    -0.25400
C2086       C  0.45666876  0.23166580  0.45422469     0.37000
C2087       C  0.55207666  0.23357658  0.42057678     0.06600
F2088       F  0.56160063  0.23531334  0.49438301    -0.19200
H2089       H  0.50335239  0.24204580  0.03810191     0.16500
F2090       F  0.92469931  0.22972618  0.44169953    -0.22900
H2091       H  0.48035648  0.22731705  0.40313260     0.18200
C2092       C  0.55743469  0.20413607  0.39894554     0.26200
C2093       C  0.59208454  0.19633622  0.38795301    -0.11500
C2094       C  0.62168838  0.21717698  0.39893020    -0.25500
C2095       C  0.61560440  0.24871547  0.41737979     0.37200
C2096       C  0.58057632  0.25763580  0.42677051    -0.27100
F2097       F  0.53070967  0.17991197  0.39349873    -0.19200
H2098       H  0.59655255  0.17118407  0.37529818     0.16400
F2099       F  0.64363493  0.26760173  0.43134719    -0.22900
H2100       H  0.57658125  0.28060382  0.44341190     0.18300
C2101       C  0.51249545  0.46160365  0.05216781    -0.27000
C2102       C  0.52140818  0.43062735  0.07074884     0.06600
C2103       C  0.54499540  0.43242772  0.10001558     0.26200
C2104       C  0.55567075  0.46522859  0.11299047    -0.11500
C2105       C  0.54339005  0.49632181  0.09678904    -0.25400
C2106       C  0.51795594  0.99180205  0.06713213     0.37000
C2107       C  0.98928786  0.39872256  0.06071592     0.06600
F2108       F  0.55392342  0.40300496  0.11870650    -0.19200
H2109       H  0.57087126  0.46642953  0.13750402     0.16500
F2110       F  0.50376981  0.02194841  0.05335718    -0.22900
H2111       H  0.49434728  0.46046790  0.02950711     0.18200
C2112       C  0.95220339  0.39970807  0.06800776     0.26200
C2113       C  0.93224185  0.36845719  0.06846872    -0.11500
C2114       C  0.94853431  0.33581768  0.06084389    -0.25500
C2115       C  0.49348915  0.33496667  0.06338589     0.37200
C2116       C  0.51500385  0.36536940  0.06368280    -0.27100
F2117       F  0.93591817  0.43042711  0.07746633    -0.19200
H2118       H  0.90367419  0.36991151  0.07405098     0.16400
F2119       F  0.51017257  0.30318208  0.06085724    -0.22900
H2120       H  0.54414003  0.36278574  0.06254435     0.18300
C2121       C  0.00276788  0.33758590  0.16875937    -0.27000
C2122       C  0.00382877  0.30890105  0.19192862     0.06600
C2123       C  0.97177995  0.28995083  0.19888479     0.26200
C2124       C  0.93884263  0.30137400  0.18424532    -0.11500
C2125       C  0.93791156  0.33138376  0.16248255    -0.25400
C2126       C  0.97038881  0.34852679  0.15407072     0.37000
C2127       C  0.54094659  0.30239335  0.20749415     0.06600
F2128       F  0.97213557  0.26156247  0.22084817    -0.19200
H2129       H  0.91395288  0.28830006  0.19155209     0.16500
F2130       F  0.97039012  0.37874987  0.13509221    -0.22900
H2131       H  0.53039196  0.35520575  0.16238839     0.18200
C2132       C  0.57349806  0.29983301  0.18909286     0.26200
C2133       C  0.60601634  0.29511082  0.20741673    -0.11500
C2134       C  0.60665235  0.29235493  0.24441114    -0.25500
C2135       C  0.57403326  0.29688888  0.26276775     0.37200
C2136       C  0.54160572  0.30178003  0.24435566    -0.27100
F2137       F  0.57372165  0.30107277  0.15333348    -0.19200
H2138       H  0.63045299  0.29203025  0.19235894     0.16400
F2139       F  0.57297568  0.29540200  0.29843761    -0.22900
H2140       H  0.51693284  0.30539506  0.25896020     0.18300
C2141       C  0.62252168  0.13868402  0.31709730    -0.27000
C2142       C  0.58539095  0.14095003  0.30902991     0.06600
C2143       C  0.57018940  0.17399236  0.30086298     0.26200
C2144       C  0.59152557  0.20426786  0.30198422    -0.11500
C2145       C  0.62885599  0.20218508  0.30957090    -0.25400
C2146       C  0.64423233  0.16882418  0.31670196     0.37000
C2147       C  0.56214677  0.10987973  0.31450253     0.06600
F2148       F  0.53471959  0.17707197  0.29157379    -0.19200
H2149       H  0.57877816  0.22905802  0.29516861     0.16500
F2150       F  0.68026926  0.16516181  0.32285610    -0.22900
H2151       H  0.63470585  0.11373272  0.32473764     0.18200
C2152       C  0.57396455  0.07561812  0.30563284     0.26200
C2153       C  0.55704881  0.04621536  0.32017634    -0.11500
C2154       C  0.52789787  0.05102614  0.34262515    -0.25500
C2155       C  0.51346192  0.08464875  0.34811300     0.37200
C2156       C  0.53061112  0.11397892  0.33424155    -0.27100
F2157       F  0.60311429  0.07073669  0.28488977    -0.19200
H2158       H  0.56796909  0.01996827  0.31592087     0.16400
F2159       F  0.99066901  0.09098678  0.37087352    -0.22900
H2160       H  0.52087477  0.13987580  0.34158673     0.18300
C2161       C  0.67311524  0.15167283  0.11481780    -0.27000
C2162       C  0.69567850  0.13856054  0.14191340     0.06600
C2163       C  0.72427637  0.11589956  0.13383846     0.26200
C2164       C  0.73404471  0.11183719  0.09898890    -0.11500
C2165       C  0.71432705  0.12874351  0.07212452    -0.25400
C2166       C  0.68270098  0.14717212  0.07989907     0.37000
C2167       C  0.69549944  0.15717082  0.17567678     0.06600
F2168       F  0.74567685  0.10198098  0.15967540    -0.19200
H2169       H  0.75917486  0.09872665  0.09325228     0.16500
F2170       F  0.66405256  0.16469881  0.05427223    -0.22900
H2171       H  0.65093301  0.16931947  0.12062509     0.18200
C2172       C  0.72668716  0.17596291  0.18695658     0.26200
C2173       C  0.72412168  0.20175361  0.21295745    -0.11500
C2174       C  0.69052398  0.20968771  0.22693428    -0.25500
C2175       C  0.65973671  0.18994081  0.21686044     0.37200
C2176       C  0.66240195  0.16342965  0.19177491    -0.27100
F2177       F  0.75887388  0.17181859  0.17071734    -0.19200
H2178       H  0.74792324  0.21645187  0.22088364     0.16400
F2179       F  0.62673359  0.19746275  0.23004152    -0.22900
H2180       H  0.63815981  0.14958036  0.18300143     0.18300
N2181       N  0.72988286  0.13514295  0.53885538    -0.02300
C2182       C  0.76377699  0.14823521  0.53590995     0.00300
C2183       C  0.77760348  0.13759070  0.50388958    -0.22600
C2184       C  0.75079640  0.11794563  0.48673696    -0.22800
C2185       C  0.72143668  0.11669139  0.50895958     0.00200
H2186       H  0.80419014  0.14358830  0.49389361     0.14000
H2187       H  0.74848873  0.11949604  0.95587354     0.14000
N2188       N  0.51783686  0.02386974  0.86368094    -0.02300
C2189       C  0.52760831  0.02065440  0.89800055     0.00300
C2190       C  0.50810202  0.49095077  0.91287280    -0.22600
C2191       C  0.99042666  0.47452852  0.88275211    -0.22800
C2192       C  0.99776277  0.99618587  0.85557279     0.00200
H2193       H  0.50904798  0.48208941  0.93998664     0.14000
H2194       H  0.97577478  0.44969355  0.88421086     0.14000
N2195       N  0.90258557  0.35005305  0.65405927    -0.02300
C2196       C  0.89692581  0.38419152  0.66355976     0.00300
C2197       C  0.86441174  0.39556713  0.64917773    -0.22600
C2198       C  0.84940282  0.36708465  0.63100002    -0.22800
C2199       C  0.87351079  0.33919123  0.63408454     0.00200
H2200       H  0.85262773  0.42161752  0.65191291     0.14000
H2201       H  0.82350705  0.36675256  0.61732328     0.14000
C2202       C  0.63442185  0.28741162  0.76917051     0.81400
N2203       N  0.63079075  0.26940848  0.79977527    -0.76900
C2204       C  0.64759648  0.23779320  0.80377500     0.83900
N2205       N  0.67744102  0.23168324  0.78465548    -0.76800
C2206       C  0.68070553  0.24836267  0.75348276     0.84000
N2207       N  0.66257491  0.27904819  0.74829495    -0.78500
Fe2208     Fe  0.75635398  0.30026928  0.83646102     1.65800
Fe2209     Fe  0.68609684  0.32037333  0.88833482     1.73200
Fe2210     Fe  0.70591151  0.37300460  0.81912355     1.54400
O2211       O  0.75762801  0.39203964  0.82674795    -0.80500
O2212       O  0.63828287  0.34220681  0.86355976    -0.78800
O2213       O  0.78738722  0.34304780  0.81317731    -0.83000
O2214       O  0.73605496  0.29108636  0.78774620    -0.77800
O2215       O  0.68512220  0.40312148  0.86348791    -0.79600
O2216       O  0.67349616  0.27079847  0.86966182    -0.82300
C2217       C  0.73534120  0.31493077  0.76444008     0.98400
C2218       C  0.78316241  0.37688703  0.81066676     1.05900
O2219       O  0.71597119  0.33118679  0.84789943    -1.11300
O2220       O  0.73061521  0.29653176  0.91706740    -0.73800
O2221       O  0.77959709  0.30654953  0.88498063    -0.77300
O2222       O  0.72438671  0.34659482  0.77166631    -0.77900
C2223       C  0.76471064  0.29277488  0.91163359     0.99300
O2224       O  0.72927519  0.25389286  0.85688779    -0.75900
O2225       O  0.69638975  0.36916888  0.91018913    -0.81100
C2226       C  0.63012933  0.35488124  0.83292867     0.99900
C2227       C  0.68258823  0.39695409  0.89685057     1.05900
O2228       O  0.65366761  0.35739092  0.80904917    -0.76700
C2229       C  0.69738016  0.24684645  0.86839460     1.04200
N2230       N  0.54455570  0.02686998  0.61405227    -0.02300
C2231       C  0.53133689  0.03238405  0.64692434     0.00300
C2232       C  0.54038782  0.06647260  0.65741178    -0.22600
C2233       C  0.55942799  0.08204107  0.63016834    -0.22800
C2234       C  0.56204296  0.05707832  0.60352431     0.00200
H2235       H  0.53346754  0.07898466  0.68205152     0.14000
H2236       H  0.56972214  0.10893307  0.62973683     0.14000
N2237       N  0.65840777  0.20099100  0.90125645    -0.02300
C2238       C  0.66400833  0.16840666  0.91555162     0.00300
C2239       C  0.69778744  0.15671371  0.90584396    -0.22600
C2240       C  0.71382032  0.18359059  0.88652366    -0.22800
C2241       C  0.68899270  0.21091640  0.88378100     0.00200
H2242       H  0.70938382  0.13119630  0.91182532     0.14000
H2243       H  0.74081894  0.18322165  0.87590108     0.14000
N2244       N  0.83363860  0.41720895  0.78706565    -0.02300
C2245       C  0.80276041  0.39799092  0.78282141     0.00300
C2246       C  0.79014244  0.40259815  0.74855634    -0.22600
C2247       C  0.81453144  0.42461565  0.73153901    -0.22800
C2248       C  0.84141190  0.43332551  0.75585019     0.00200
H2249       H  0.76593534  0.39112875  0.73690372     0.14000
H2250       H  0.81305764  0.43269272  0.70421939     0.14000
C2251       C  0.93128837  0.25647738  0.01439563     0.81400
N2252       N  0.94251742  0.27308894  0.54408500    -0.76900
C2253       C  0.92561229  0.30348443  0.55329881     0.83900
N2254       N  0.89361602  0.31372003  0.03552912    -0.76800
C2255       C  0.88636212  0.29916393  0.00370479     0.84000
N2256       N  0.90194122  0.26774894  0.99595740    -0.78500
Fe2257     Fe  0.55880455  0.05106010  0.49508360     1.65800
Fe2258     Fe  0.62999681  0.07116825  0.94212244     1.73200
Fe2259     Fe  0.61103818  0.12136996  0.51413707     1.54400
O2260       O  0.56091060  0.14270185  0.50524644    -0.80500
O2261       O  0.67845357  0.09112933  0.96725276    -0.78800
O2262       O  0.52832023  0.09497387  0.51813186    -0.83000
O2263       O  0.57824172  0.04018097  0.54478626    -0.77800
O2264       O  0.63649134  0.15058857  0.97099863    -0.79600
O2265       O  0.64153057  0.02129738  0.95880813    -0.82300
C2266       C  0.57842650  0.06440471  0.56796760     0.98400
C2267       C  0.53372039  0.12886852  0.52006386     1.05900
O2268       O  0.59970683  0.08127992  0.48391528    -1.11300
O2269       O  0.58480269  0.04893389  0.91309043    -0.73800
O2270       O  0.53696548  0.05955972  0.94627757    -0.77300
O2271       O  0.58977379  0.09577334  0.56034029    -0.77900
C2272       C  0.55079086  0.04577660  0.91917171     0.97300
O2273       O  0.58510478  0.50421827  0.47325013    -0.75900
O2274       O  0.62151347  0.12105939  0.92224319    -0.81100
C2275       C  0.68499786  0.10143619  0.49997217     0.99900
C2276       C  0.63775477  0.14682459  0.93721750     1.05900
O2277       O  0.66131537  0.10149374  0.52380873    -0.76700
C2278       C  0.61844826  0.49786975  0.96037505     1.04200
N2279       N  0.47727260  0.15551062  0.55063946    -0.02300
C2280       C  0.51352299  0.15272300  0.54532330     0.00300
C2281       C  0.53106963  0.17774418  0.56640456    -0.22600
C2282       C  0.50501417  0.19612360  0.58487824    -0.22800
C2283       C  0.97183130  0.18234753  0.57422094     0.00200
H2284       H  0.55993456  0.18253376  0.56787781     0.14000
H2285       H  0.50974664  0.21808776  0.60274397     0.14000
N2286       N  0.77784031  0.28390017  0.72147276    -0.02300
C2287       C  0.77679586  0.27608169  0.68633353     0.00300
C2288       C  0.74704945  0.29298881  0.67125551    -0.22600
C2289       C  0.72952213  0.31127023  0.69762542    -0.22800
C2290       C  0.74837363  0.30473018  0.72855201     0.00200
H2291       H  0.73857089  0.29176953  0.64385988     0.14000
H2292       H  0.70462375  0.32605971  0.69477013     0.14000
N2293       N  0.65516239  0.45415217  0.92326789    -0.02300
C2294       C  0.65797099  0.41832418  0.92037131     0.00300
C2295       C  0.63229707  0.40290297  0.94186410    -0.22600
C2296       C  0.61330677  0.43004214  0.95791292    -0.22800
C2297       C  0.62858868  0.46157367  0.94703744     0.00200
H2298       H  0.62729873  0.37480188  0.94501118     0.14000
H2299       H  0.59136336  0.42694510  0.97621617     0.14000
C2300       C  0.89315318  0.09655018  0.80807772     0.81400
N2301       N  0.86236125  0.08475147  0.79186014    -0.76900
C2302       C  0.84480282  0.05563300  0.80380950     0.83900
N2303       N  0.85943092  0.03725704  0.83120383    -0.76800
C2304       C  0.88868842  0.04989959  0.84909944     0.84000
N2305       N  0.90634035  0.07870647  0.83643373    -0.78500
Fe2306     Fe  0.86108662  0.17788137  0.56997724     1.65800
Fe2307     Fe  0.80804165  0.24722253  0.58915630     1.73200
Fe2308     Fe  0.88086786  0.22933254  0.64051690     1.54400
O2309       O  0.87279189  0.17980085  0.66085643    -0.80500
O2310       O  0.83394713  0.29403612  0.60981177    -0.78800
O2311       O  0.88499984  0.14817373  0.61312227    -0.83000
O2312       O  0.91118852  0.19667551  0.55998741    -0.77800
O2313       O  0.83618336  0.25124898  0.67040805    -0.79600
O2314       O  0.82546124  0.25917811  0.53972142    -0.82300
C2315       C  0.93559209  0.19741059  0.58361141     0.98400
C2316       C  0.88808679  0.15355477  0.64656978     1.05900
O2317       O  0.85028949  0.21840311  0.59963228    -1.11300
O2318       O  0.77832643  0.20356459  0.56565953    -0.73800
O2319       O  0.81129266  0.15598229  0.57783828    -0.77300
O2320       O  0.92885221  0.20916986  0.61482732    -0.77900
C2321       C  0.78418952  0.17007426  0.56274588     0.97300
O2322       O  0.84004129  0.20434550  0.52351253    -0.75900
O2323       O  0.78763795  0.23749404  0.63814818    -0.81100
C2324       C  0.86603381  0.30246850  0.62069246     0.99900
C2325       C  0.80163545  0.25244766  0.66510934     1.05900
O2326       O  0.89098006  0.27956373  0.62277402    -0.76700
C2327       C  0.82828644  0.23570725  0.51604298     1.04200
N2328       N  0.91189210  0.09964853  0.68024665    -0.02300
C2329       C  0.91517362  0.13331755  0.66858018     0.00300
C2330       C  0.94757227  0.14717732  0.68139704    -0.22600
C2331       C  0.96446439  0.12068288  0.70105533    -0.22800
C2332       C  0.94155267  0.09156523  0.70031196     0.00200
H2333       H  0.95797774  0.17360181  0.67683742     0.14000
H2334       H  0.99045307  0.12262488  0.71441551     0.14000
N2335       N  0.58341393  0.39060673  0.79768703    -0.02300
C2336       C  0.54744116  0.39691223  0.79870005     0.00300
C2337       C  0.53358985  0.37985268  0.82791697    -0.22600
C2338       C  0.56231034  0.36293145  0.84499375    -0.22800
C2339       C  0.59286455  0.36912088  0.82517688     0.00200
H2340       H  0.00523762  0.38233388  0.83519617     0.14000
H2341       H  0.56076085  0.34713283  0.86871484     0.14000
N2342       N  0.79504433  0.27348549  0.96945358    -0.02300
C2343       C  0.78745714  0.26894773  0.93462762     0.00300
C2344       C  0.80455137  0.23880602  0.92265893    -0.22600
C2345       C  0.82240733  0.22391645  0.95131867    -0.22800
C2346       C  0.81633153  0.24562580  0.98006938     0.00200
H2347       H  0.80372511  0.22843229  0.89605864     0.14000
H2348       H  0.83800406  0.19969356  0.95114721     0.14000
C2349       C  0.64579053  0.51177151  0.58133329     0.81400
N2350       N  0.64324935  0.49049756  0.55248405    -0.76900
C2351       C  0.66882697  0.49260208  0.52730899     0.83900
N2352       N  0.68926581  0.52247216  0.52616102    -0.76800
C2353       C  0.68833027  0.04006343  0.56152610     0.84000
N2354       N  0.66818980  0.54019454  0.58030928    -0.78500
Fe2355     Fe  0.94824525  0.43129020  0.76297761     1.65800
Fe2356     Fe  0.00471846  0.99933513  0.74665434     1.73200
Fe2357     Fe  0.93170740  0.48279583  0.69215849     1.54400
O2358       O  0.93649361  0.43347311  0.67064326    -0.80500
O2359       O  0.98113813  0.04736290  0.72642885    -0.78800
O2360       O  0.92460777  0.40223921  0.71915701    -0.83000
O2361       O  0.89973114  0.45488578  0.77152501    -0.77800
O2362       O  0.97544408  0.00521412  0.66640277    -0.79600
O2363       O  0.98635976  0.01123885  0.79583865    -0.82300
C2364       C  0.87578525  0.45290330  0.74767816     0.98400
C2365       C  0.92181065  0.40702383  0.68557052     1.05900
O2366       O  0.96242824  0.47006037  0.73232586    -1.11300
O2367       O  0.53326267  0.45264975  0.76881301    -0.73800
O2368       O  0.99725393  0.40665496  0.75824404    -0.77300
O2369       O  0.88291024  0.46331255  0.71626953    -0.77900
C2370       C  0.52557539  0.41949061  0.77331562     0.97300
O2371       O  0.96907226  0.45584508  0.80962190    -0.75900
O2372       O  0.02541957  0.99130107  0.69681769    -0.81100
C2373       C  0.94900111  0.05608824  0.71641784     0.99900
C2374       C  0.01015895  0.00619371  0.67033115     1.05900
O2375       O  0.92338541  0.03375837  0.71675404    -0.76700
C2376       C  0.98272446  0.98819078  0.81975143     1.04200
C2377       C  0.77320013  0.36765968  0.98305668    -0.27000
C2378       C  0.74937469  0.36613644  0.01113274     0.06600
C2379       C  0.74451281  0.33376034  0.02908115     0.26200
C2380       C  0.76204617  0.30310741  0.01728321    -0.11500
C2381       C  0.78490538  0.30491219  0.98813958    -0.25400
C2382       C  0.79103365  0.33791341  0.97214164     0.37000
C2383       C  0.72830731  0.39637665  0.51973786     0.06600
F2384       F  0.72036043  0.32925534  0.55686241    -0.19200
H2385       H  0.75605911  0.27779006  0.02932993     0.16500
F2386       F  0.81046165  0.34087734  0.94250770    -0.22900
H2387       H  0.77617518  0.39147380  0.96740820     0.18200
C2388       C  0.74570177  0.42944575  0.51892294     0.26200
C2389       C  0.72563980  0.46013124  0.51679115    -0.11500
C2390       C  0.68774958  0.45921453  0.51926097    -0.25500
C2391       C  0.67029825  0.42604835  0.52193049     0.37200
C2392       C  0.69044461  0.39483662  0.52110384    -0.27100
F2393       F  0.78237685  0.43210873  0.51960495    -0.19200
H2394       H  0.74045682  0.48475557  0.51503614     0.16400
F2395       F  0.63421799  0.42380172  0.52758396    -0.22900
H2396       H  0.67691919  0.36959211  0.02327644     0.18300
C2397       C  0.63960468  0.45273409  0.74699138    -0.27000
C2398       C  0.63086774  0.44116562  0.71275851     0.06600
C2399       C  0.61079247  0.40975349  0.70770417     0.26200
C2400       C  0.59848763  0.39114172  0.73639825    -0.11500
C2401       C  0.60555501  0.40350023  0.77037162    -0.25400
C2402       C  0.62678078  0.43390073  0.77588231     0.37000
C2403       C  0.64046875  0.46206479  0.68182836     0.06600
F2404       F  0.60047544  0.39858122  0.67504500    -0.19200
H2405       H  0.58041325  0.36890397  0.73218933     0.16500
F2406       F  0.63222027  0.44680230  0.80891563    -0.22900
H2407       H  0.65510226  0.47683289  0.75124246     0.18200
C2408       C  0.63063567  0.49789549  0.67840110     0.26200
C2409       C  0.63277025  0.51436950  0.64554428    -0.11500
C2410       C  0.64258795  0.49468828  0.61581992    -0.25500
C2411       C  0.65531197  0.45982379  0.62042237     0.37200
C2412       C  0.65488789  0.44412993  0.65318629    -0.27100
F2413       F  0.61742200  0.51630674  0.70609517    -0.19200
H2414       H  0.62621338  0.54216431  0.64318832     0.16400
F2415       F  0.66982460  0.44107757  0.59381775    -0.22900
H2416       H  0.66421280  0.41703319  0.65586858     0.18300
C2417       C  0.81816757  0.06899845  0.66838677    -0.27000
C2418       C  0.82176709  0.04636827  0.63918484     0.06600
C2419       C  0.85642776  0.03693348  0.62777274     0.26200
C2420       C  0.88679196  0.05249989  0.64354011    -0.11500
C2421       C  0.88260108  0.07702111  0.67082584    -0.25400
C2422       C  0.84847306  0.08401726  0.68430563     0.37000
C2423       C  0.78928707  0.03782691  0.61812635     0.06600
F2424       F  0.86076596  0.01448148  0.60019533    -0.19200
H2425       H  0.91336631  0.04736547  0.63308466     0.16500
F2426       F  0.84444491  0.10788169  0.71073267    -0.22900
H2427       H  0.79181655  0.07735698  0.67721532     0.18200
C2428       C  0.75700478  0.02955571  0.63510780     0.26200
C2429       C  0.72446985  0.03153431  0.61678314    -0.11500
C2430       C  0.72341593  0.03970283  0.58055439    -0.25500
C2431       C  0.75619491  0.04431392  0.56277310     0.37200
C2432       C  0.78881019  0.04425555  0.58165021    -0.27100
F2433       F  0.75677768  0.02108231  0.66989034    -0.19200
H2434       H  0.70017173  0.02676879  0.63147430     0.16400
F2435       F  0.75670585  0.05055269  0.52763226    -0.22900
H2436       H  0.81337788  0.05117690  0.56803400     0.18300
C2437       C  0.75535312  0.51081871  0.80223795    -0.27000
C2438       C  0.73817268  0.53297019  0.82646027     0.06600
C2439       C  0.75545095  0.06914084  0.84075852     0.26200
C2440       C  0.78765907  0.07908474  0.82480047    -0.11500
C2441       C  0.80524404  0.05533812  0.80233710    -0.25400
C2442       C  0.78705448  0.02474284  0.79084417     0.37000
C2443       C  0.71538083  0.51644902  0.85312428     0.06600
F2444       F  0.74204448  0.08963402  0.86685732    -0.19200
H2445       H  0.80151661  0.10275241  0.83413673     0.16500
F2446       F  0.80706303  0.49772074  0.76837610    -0.22900
H2447       H  0.74542225  0.48411909  0.79760558     0.18200
C2448       C  0.67754979  0.51616311  0.85033956     0.26200
C2449       C  0.65737110  0.49735451  0.87507737    -0.11500
C2450       C  0.67498220  0.47870136  0.90233064    -0.25500
C2451       C  0.71269249  0.48017925  0.90569078     0.37200
C2452       C  0.73273692  0.49906820  0.88128999    -0.27100
F2453       F  0.66045974  0.53273629  0.82312416    -0.19200
H2454       H  0.62823078  0.49578380  0.87208783     0.16400
F2455       F  0.73002916  0.46203301  0.93172399    -0.22900
H2456       H  0.75919759  0.01168612  0.89680351     0.18300
C2457       C  0.86785588  0.26222919  0.76133230    -0.27000
C2458       C  0.85861907  0.23325349  0.78262186     0.06600
C2459       C  0.82190683  0.22535379  0.78802669     0.26200
C2460       C  0.79514291  0.24383582  0.76972867    -0.11500
C2461       C  0.80436760  0.27082481  0.74618741    -0.25400
C2462       C  0.84073191  0.28129499  0.74356638     0.37000
C2463       C  0.88534707  0.20566928  0.79156577     0.06600
F2464       F  0.81202302  0.19691757  0.80766202    -0.19200
H2465       H  0.76743437  0.23527101  0.77230515     0.16500
F2466       F  0.84995037  0.30823592  0.72176066    -0.22900
H2467       H  0.89599029  0.26846931  0.75667981     0.18200
C2468       C  0.89730006  0.18404845  0.76398206     0.26200
C2469       C  0.90440756  0.14835455  0.77028572    -0.11500
C2470       C  0.90167637  0.13440082  0.80423244    -0.25500
C2471       C  0.89641046  0.15760504  0.83278873     0.37200
C2472       C  0.88791989  0.19314492  0.82633432    -0.27100
F2473       F  0.89575224  0.19570302  0.73019622    -0.19200
H2474       H  0.90767849  0.13076956  0.74818447     0.16400
F2475       F  0.89351432  0.14492191  0.86610853    -0.22900
H2476       H  0.87872554  0.20948814  0.84790450     0.18300
C2477       C  0.92819038  0.07474158  0.01765048    -0.27000
C2478       C  0.91136696  0.08847092  0.98726972     0.06600
C2479       C  0.91224533  0.12520163  0.98099074     0.26200
C2480       C  0.43326695  0.14803029  0.00445179    -0.11500
C2481       C  0.95113719  0.13460560  0.53232601    -0.25400
C2482       C  0.94721326  0.09840847  0.53998657     0.37000
C2483       C  0.90146242  0.06492348  0.95781898     0.06600
F2484       F  0.39707154  0.13915789  0.95334647    -0.19200
H2485       H  0.43550108  0.17568290  0.99762502     0.16500
F2486       F  0.96468095  0.08405744  0.56822051    -0.22900
H2487       H  0.92824390  0.04644549  0.02245681     0.18200
C2488       C  0.92953702  0.04927357  0.93887078     0.26200
C2489       C  0.92402163  0.04002974  0.90367181    -0.11500
C2490       C  0.89032541  0.04508068  0.88743288    -0.25500
C2491       C  0.86085235  0.05589186  0.90793813     0.37200
C2492       C  0.86660544  0.06625747  0.94292705    -0.27100
F2493       F  0.96352231  0.04798669  0.95273779    -0.19200
H2494       H  0.94685869  0.03262548  0.88808168     0.16400
F2495       F  0.82781190  0.06138337  0.89296031    -0.22900
H2496       H  0.84479705  0.07859182  0.95717263     0.18300
C2497       C  0.89727578  0.38297516  0.85355390    -0.27000
C2498       C  0.87802532  0.39177250  0.88391984     0.06600
C2499       C  0.85080500  0.41772340  0.88197501     0.26200
C2500       C  0.83975187  0.43058365  0.84926063    -0.11500
C2501       C  0.85483023  0.41681861  0.81861708    -0.25400
C2502       C  0.88500673  0.39457606  0.82079357     0.37000
C2503       C  0.88077230  0.36851159  0.91487047     0.06600
F2504       F  0.83142850  0.42682215  0.91068597    -0.19200
H2505       H  0.81629438  0.44766715  0.84745674     0.16500
F2506       F  0.89918828  0.38027838  0.79124995    -0.22900
H2507       H  0.91890435  0.36368187  0.85478468     0.18200
C2508       C  0.87854169  0.33150194  0.91038199     0.26200
C2509       C  0.87844086  0.30933781  0.93953072    -0.11500
C2510       C  0.87973611  0.32339215  0.97380357    -0.25500
C2511       C  0.87998750  0.36063059  0.97817806     0.37200
C2512       C  0.88131965  0.38280450  0.94891419    -0.27100
F2513       F  0.87429896  0.31672228  0.87792301    -0.19200
H2514       H  0.87677330  0.28105958  0.93514056     0.16400
F2515       F  0.87871136  0.37592876  0.01044587    -0.22900
H2516       H  0.88227268  0.41123753  0.95286850     0.18300
C2517       C  0.48962069  0.23263322  0.93737680    -0.27000
C2518       C  0.52441193  0.23329840  0.95242228     0.06600
C2519       C  0.52867349  0.23380774  0.98916428     0.26200
C2520       C  0.49881402  0.23859649  0.01020407    -0.11500
C2521       C  0.46411763  0.24209353  0.99520881    -0.25400
C2522       C  0.45949379  0.23609771  0.95866799     0.37000
C2523       C  0.55642743  0.23225927  0.93023933     0.06600
F2524       F  0.56186698  0.23086361  0.00468742    -0.19200
H2525       H  0.50475650  0.24142809  0.53100169     0.16500
F2526       F  0.92470250  0.23469501  0.94072040    -0.22900
H2527       H  0.48582059  0.23064058  0.90908447     0.18200
C2528       C  0.56018248  0.20489324  0.90576635     0.26200
C2529       C  0.59376874  0.19842916  0.89154991    -0.11500
C2530       C  0.62416330  0.21808594  0.90256125    -0.25500
C2531       C  0.61973612  0.24769389  0.92427567     0.37200
C2532       C  0.58565997  0.25522781  0.93743150    -0.27100
F2533       F  0.53298974  0.18133318  0.89973192    -0.19200
H2534       H  0.59721423  0.17461605  0.87618287     0.16400
F2535       F  0.64888213  0.26600466  0.93672691    -0.22900
H2536       H  0.58287139  0.27678105  0.95607402     0.18300
C2537       C  0.50892506  0.45702811  0.55269204    -0.27000
C2538       C  0.51798436  0.42598481  0.57121288     0.06600
C2539       C  0.54296055  0.42779571  0.59940627     0.26200
C2540       C  0.55541093  0.46057792  0.61117702    -0.11500
C2541       C  0.54300665  0.49182715  0.59529164    -0.25400
C2542       C  0.51693693  0.99335881  0.56521584     0.37000
C2543       C  0.99155805  0.39536061  0.56375829     0.06600
F2544       F  0.55180938  0.39847868  0.61828897    -0.19200
H2545       H  0.57205257  0.46184564  0.63484270     0.16500
F2546       F  0.50501220  0.02362966  0.54982405    -0.22900
H2547       H  0.48995206  0.45601298  0.53067052     0.18200
C2548       C  0.95366959  0.39795808  0.56541837     0.26200
C2549       C  0.93259324  0.36744205  0.56690308    -0.11500
C2550       C  0.94841588  0.33371443  0.56493797    -0.25500
C2551       C  0.49126780  0.32949063  0.56467153     0.37200
C2552       C  0.51235150  0.36024885  0.56519841    -0.27100
F2553       F  0.93703538  0.42987851  0.56791957    -0.19200
H2554       H  0.90359803  0.37026890  0.56879689     0.16400
F2555       F  0.50838901  0.29782833  0.56344521    -0.22900
H2556       H  0.54153648  0.35795315  0.56475049     0.18300
C2557       C  0.00007394  0.33732680  0.66981505    -0.27000
C2558       C  0.00001097  0.30969118  0.69417126     0.06600
C2559       C  0.96756859  0.29176984  0.70158546     0.26200
C2560       C  0.93525516  0.30280239  0.68547653    -0.11500
C2561       C  0.93537835  0.33178043  0.66236710    -0.25400
C2562       C  0.96824056  0.34824397  0.65415383     0.37000
C2563       C  0.53430416  0.30187491  0.71434130     0.06600
F2564       F  0.96698863  0.26480119  0.72522802    -0.19200
H2565       H  0.91002860  0.29037646  0.69266890     0.16500
F2566       F  0.96901804  0.37798784  0.63446266    -0.22900
H2567       H  0.52544346  0.35249562  0.66689764     0.18200
C2568       C  0.56665310  0.29904612  0.69582602     0.26200
C2569       C  0.59945041  0.29833258  0.71392320    -0.11500
C2570       C  0.60061587  0.29818319  0.75103329    -0.25500
C2571       C  0.56788321  0.30090462  0.76948543     0.37200
C2572       C  0.53510021  0.30330395  0.75117239    -0.27100
F2573       F  0.56641539  0.29680023  0.66009799    -0.19200
H2574       H  0.62376633  0.29583286  0.69858066     0.16400
F2575       F  0.56720686  0.29961675  0.80514147    -0.22900
H2576       H  0.51034647  0.30651720  0.76574637     0.18300
C2577       C  0.61772739  0.14280283  0.81304749    -0.27000
C2578       C  0.58007394  0.14604535  0.80876398     0.06600
C2579       C  0.56478975  0.17979752  0.80473186     0.26200
C2580       C  0.58674591  0.20965531  0.80591636    -0.11500
C2581       C  0.62451119  0.20660515  0.80989374    -0.25400
C2582       C  0.63984138  0.17267184  0.81311234     0.37000
C2583       C  0.55703520  0.11480424  0.81435726     0.06600
F2584       F  0.52861623  0.18400547  0.79969844    -0.19200
H2585       H  0.57390308  0.23502597  0.80244205     0.16500
F2586       F  0.67617796  0.16824265  0.81596765    -0.22900
H2587       H  0.63008540  0.11716752  0.81744878     0.18200
C2588       C  0.56698688  0.08130997  0.80140386     0.26200
C2589       C  0.55202046  0.05081570  0.81598294    -0.11500
C2590       C  0.52642159  0.05379441  0.84259974    -0.25500
C2591       C  0.51350385  0.08705799  0.85247813     0.37200
C2592       C  0.52872146  0.11738055  0.83841482    -0.27100
F2593       F  0.59283224  0.07812365  0.77656315    -0.19200
H2594       H  0.56189398  0.02500095  0.80822994     0.16400
F2595       F  0.98859930  0.09037922  0.87703966    -0.22900
H2596       H  0.52041101  0.14270119  0.84874319     0.18300
C2597       C  0.66694660  0.16967220  0.60512855    -0.27000
C2598       C  0.68311820  0.15546615  0.63569333     0.06600
C2599       C  0.70844544  0.12816571  0.63303911     0.26200
C2600       C  0.72298582  0.12076814  0.60054203    -0.11500
C2601       C  0.70951060  0.13733502  0.57021306    -0.25400
C2602       C  0.68013915  0.16046323  0.57222452     0.37000
C2603       C  0.68221525  0.17625864  0.66807234     0.06600
F2604       F  0.72310327  0.11292559  0.66233868    -0.19200
H2605       H  0.74691208  0.10463519  0.59938832     0.16500
F2606       F  0.66745620  0.17722634  0.54296437    -0.22900
H2607       H  0.64728319  0.19079201  0.60686574     0.18200
C2608       C  0.71490674  0.18934249  0.68268025     0.26200
C2609       C  0.71436276  0.21305597  0.71052004    -0.11500
C2610       C  0.68150336  0.22467571  0.72342241    -0.25500
C2611       C  0.64876489  0.21104421  0.70952113     0.37200
C2612       C  0.64918212  0.18709866  0.68172162    -0.27100
F2613       F  0.74740589  0.18048981  0.66906574    -0.19200
H2614       H  0.73948553  0.22258048  0.72146677     0.16400
F2615       F  0.61647290  0.22041591  0.72319492    -0.22900
H2616       H  0.62389994  0.17735589  0.67057083     0.18300
N2617       N  0.73110127  0.63628059  0.03632480    -0.02300
C2618       C  0.76480004  0.64977997  0.03328652     0.00300
C2619       C  0.77805523  0.64018605  0.00068121    -0.22600
C2620       C  0.75101875  0.62082128  0.98340172    -0.22800
C2621       C  0.72212486  0.61860392  0.00614767     0.00200
H2622       H  0.80439244  0.64667855  0.99037993     0.14000
H2623       H  0.75224802  0.61116128  0.45710195     0.14000
N2624       N  0.51541687  0.52390307  0.36473379    -0.02300
C2625       C  0.52519438  0.52121367  0.39904783     0.00300
C2626       C  0.50948767  0.99092358  0.41320113    -0.22600
C2627       C  0.99086181  0.97702151  0.38513208    -0.22800
C2628       C  0.99606487  0.49619996  0.35449691     0.00200
H2629       H  0.51148383  0.98181846  0.44019491     0.14000
H2630       H  0.97414602  0.95351204  0.38707558     0.14000
N2631       N  0.90600528  0.84869624  0.15555407    -0.02300
C2632       C  0.89971126  0.88218582  0.16701142     0.00300
C2633       C  0.86641210  0.89332040  0.15438153    -0.22600
C2634       C  0.85147138  0.86546154  0.13534427    -0.22800
C2635       C  0.87631802  0.83809224  0.13613360     0.00200
H2636       H  0.85418090  0.91893331  0.15862702     0.14000
H2637       H  0.82504563  0.86513467  0.12269092     0.14000
C2638       C  0.63639848  0.78608295  0.27255220     0.81400
N2639       N  0.63175458  0.76577426  0.30153649    -0.76900
C2640       C  0.64811381  0.73376223  0.30364172     0.83900
N2641       N  0.67788147  0.72823836  0.28425488    -0.76800
C2642       C  0.68214224  0.74730300  0.25459351     0.84000
N2643       N  0.66453769  0.77854443  0.25136977    -0.78500
Fe2644     Fe  0.75589105  0.80019186  0.33719185     1.65800
Fe2645     Fe  0.68531993  0.82080183  0.38838854     1.73200
Fe2646     Fe  0.70532805  0.87254097  0.31857373     1.54400
O2647       O  0.75687821  0.89163311  0.32641632    -0.80500
O2648       O  0.63776436  0.84270832  0.36354451    -0.78800
O2649       O  0.78711505  0.84263493  0.31389345    -0.83000
O2650       O  0.73672393  0.79033278  0.28816568    -0.77800
O2651       O  0.68440613  0.90319973  0.36251435    -0.79600
O2652       O  0.67239228  0.77121340  0.36982379    -0.82300
C2653       C  0.73590737  0.81393054  0.26459115     0.98400
C2654       C  0.78273839  0.87639122  0.31098028     1.05900
O2655       O  0.71522138  0.83105854  0.34780248    -1.11300
O2656       O  0.72959767  0.79678278  0.41752608    -0.73800
O2657       O  0.77856709  0.80746725  0.38586450    -0.77300
O2658       O  0.72428099  0.84550432  0.27142787    -0.77900
C2659       C  0.76377170  0.79335680  0.41233796     0.99300
O2660       O  0.72829030  0.75409872  0.35771153    -0.75900
O2661       O  0.69583819  0.86989384  0.40966748    -0.81100
C2662       C  0.62960921  0.85518950  0.33287317     0.99900
C2663       C  0.68192418  0.89749048  0.39596380     1.05900
O2664       O  0.65297273  0.85704861  0.30873150    -0.76700
C2665       C  0.69618132  0.74716970  0.36880480     1.04200
N2666       N  0.54704727  0.52898630  0.11529549    -0.02300
C2667       C  0.53371629  0.53472777  0.14813190     0.00300
C2668       C  0.54287330  0.56893214  0.15826562    -0.22600
C2669       C  0.56180799  0.58432029  0.13078128    -0.22800
C2670       C  0.56439803  0.55913293  0.10432851     0.00200
H2671       H  0.53611055  0.58163684  0.18285278     0.14000
H2672       H  0.57216016  0.61118641  0.13012618     0.14000
N2673       N  0.65626119  0.70087833  0.40023331    -0.02300
C2674       C  0.66232611  0.66915924  0.41623768     0.00300
C2675       C  0.69719857  0.65850466  0.40922418    -0.22600
C2676       C  0.71322378  0.68508142  0.38956486    -0.22800
C2677       C  0.68759320  0.71133328  0.38429440     0.00200
H2678       H  0.70977233  0.63408341  0.41754216     0.14000
H2679       H  0.74095283  0.68548276  0.38084752     0.14000
N2680       N  0.83403205  0.91590503  0.28815317    -0.02300
C2681       C  0.80281547  0.89736228  0.28353258     0.00300
C2682       C  0.79026331  0.90278753  0.24938300    -0.22600
C2683       C  0.81500129  0.92475851  0.23282483    -0.22800
C2684       C  0.84204585  0.93252963  0.25728788     0.00200
H2685       H  0.76583013  0.89195007  0.23755762     0.14000
H2686       H  0.81353866  0.93354573  0.20573512     0.14000
C2687       C  0.93371096  0.75586991  0.51538025     0.81400
N2688       N  0.94125606  0.77658605  0.04333077    -0.76900
C2689       C  0.92661752  0.80776802  0.05335684     0.83900
N2690       N  0.89680095  0.81369117  0.53630274    -0.76800
C2691       C  0.88961739  0.79901538  0.50449305     0.84000
N2692       N  0.90402844  0.76693914  0.49746212    -0.78500
Fe2693     Fe  0.56030643  0.55044890  0.99601341     1.65800
Fe2694     Fe  0.62852189  0.57182628  0.44186563     1.73200
Fe2695     Fe  0.61158302  0.62219419  0.01299539     1.54400
O2696       O  0.56074762  0.64237805  0.00490728    -0.80500
O2697       O  0.67750313  0.59161373  0.46691181    -0.78800
O2698       O  0.52953561  0.59385460  0.01855322    -0.83000
O2699       O  0.58108230  0.54135741  0.04571751    -0.77800
O2700       O  0.63451285  0.65149079  0.47142503    -0.79600
O2701       O  0.64027994  0.52145742  0.45729788    -0.82300
C2702       C  0.58073915  0.56601169  0.06849113     0.98400
C2703       C  0.53416247  0.62778996  0.02015148     1.05900
O2704       O  0.60029848  0.58139796  0.98344820    -1.11300
O2705       O  0.58268613  0.54983078  0.41317620    -0.73800
O2706       O  0.53540395  0.55998590  0.44720797    -0.77300
O2707       O  0.59149340  0.59736896  0.06015695    -0.77900
C2708       C  0.54875390  0.54645532  0.41978446     0.97300
O2709       O  0.58608493  0.00406443  0.97390088    -0.75900
O2710       O  0.61961585  0.62195658  0.42271681    -0.81100
C2711       C  0.68567812  0.60284384  0.99786138     0.99900
C2712       C  0.63587056  0.64768653  0.43770863     1.05900
O2713       O  0.66235372  0.60320765  0.02205798    -0.76700
C2714       C  0.61740127  0.99817000  0.45994359     1.04200
N2715       N  0.47756576  0.65453443  0.04927942    -0.02300
C2716       C  0.51388842  0.65048248  0.04603163     0.00300
C2717       C  0.53123069  0.67270998  0.07010744    -0.22600
C2718       C  0.50483310  0.69080121  0.08837882    -0.22800
C2719       C  0.97270542  0.68215943  0.07377597     0.00200
H2720       H  0.56016068  0.67572994  0.07381450     0.14000
H2721       H  0.50933653  0.71079376  0.10844896     0.14000
N2722       N  0.77885475  0.78296851  0.22151868    -0.02300
C2723       C  0.77767172  0.77492109  0.18637384     0.00300
C2724       C  0.74749928  0.79123345  0.17144958    -0.22600
C2725       C  0.72985703  0.80936979  0.19782686    -0.22800
C2726       C  0.74903691  0.80341255  0.22869116     0.00200
H2727       H  0.73882505  0.78973601  0.14412039     0.14000
H2728       H  0.70468129  0.82371209  0.19502437     0.14000
N2729       N  0.65468896  0.95485000  0.42263340    -0.02300
C2730       C  0.65697252  0.91897580  0.41909449     0.00300
C2731       C  0.63042837  0.90351343  0.43951168    -0.22600
C2732       C  0.61140104  0.93056636  0.45560104    -0.22800
C2733       C  0.62746324  0.96209967  0.44585752     0.00200
H2734       H  0.62492869  0.87542661  0.44194094     0.14000
H2735       H  0.58898065  0.92738123  0.47334068     0.14000
C2736       C  0.89486481  0.59789594  0.31460126     0.81400
N2737       N  0.86449166  0.58550494  0.29808011    -0.76900
C2738       C  0.84714044  0.55638282  0.31021151     0.83900
N2739       N  0.86111077  0.53892930  0.33846538    -0.76800
C2740       C  0.89000973  0.55203435  0.35652630     0.84000
N2741       N  0.90736705  0.58108678  0.34392977    -0.78500
Fe2742     Fe  0.86241000  0.67818889  0.06881805     1.65800
Fe2743     Fe  0.80975484  0.74758327  0.08876412     1.73200
Fe2744     Fe  0.88206148  0.72849911  0.14024424     1.54400
O2745       O  0.87328032  0.67884256  0.15983029    -0.80500
O2746       O  0.83634808  0.79387386  0.11037326    -0.78800
O2747       O  0.88594500  0.64779930  0.11181870    -0.83000
O2748       O  0.91252637  0.69735933  0.05931242    -0.77800
O2749       O  0.83734874  0.75044351  0.17021211    -0.79600
O2750       O  0.82718889  0.75997221  0.03942906    -0.82300
C2751       C  0.93674613  0.69748637  0.08312982     0.98400
C2752       C  0.88867986  0.65274967  0.14538427     1.05900
O2753       O  0.85162858  0.71829257  0.09902079    -1.11300
O2754       O  0.77977617  0.70440396  0.06441688    -0.73800
O2755       O  0.81236066  0.65627875  0.07565213    -0.77300
O2756       O  0.92989186  0.70838472  0.11458629    -0.77900
C2757       C  0.78544882  0.67092791  0.06066970     0.97300
O2758       O  0.84163405  0.70521714  0.02278397    -0.75900
O2759       O  0.78898838  0.73726385  0.13752737    -0.81100
C2760       C  0.86852785  0.80182779  0.12155782     0.99900
C2761       C  0.80281027  0.75176441  0.16481486     1.05900
O2762       O  0.89318170  0.77867224  0.12316021    -0.76700
C2763       C  0.82970239  0.73655231  0.01563577     1.04200
N2764       N  0.91259168  0.59804516  0.17764551    -0.02300
C2765       C  0.91543645  0.63223812  0.16754191     0.00300
C2766       C  0.94676471  0.64637893  0.18247817    -0.22600
C2767       C  0.96335502  0.61955276  0.20193318    -0.22800
C2768       C  0.94123107  0.58997825  0.19903516     0.00200
H2769       H  0.95665531  0.67322531  0.17946995     0.14000
H2770       H  0.98859445  0.62157740  0.21661317     0.14000
N2771       N  0.58359444  0.89291375  0.29910683    -0.02300
C2772       C  0.54755354  0.89871588  0.29971493     0.00300
C2773       C  0.53328034  0.88029572  0.32789668    -0.22600
C2774       C  0.56178968  0.86278723  0.34462585    -0.22800
C2775       C  0.59259095  0.87000708  0.32553285     0.00200
H2776       H  0.00716483  0.88343800  0.33841007     0.14000
H2777       H  0.55990622  0.84574203  0.36745157     0.14000
N2778       N  0.79655449  0.77385711  0.46889432    -0.02300
C2779       C  0.78651213  0.76885991  0.43471749     0.00300
C2780       C  0.80134515  0.73757968  0.42268597    -0.22600
C2781       C  0.82021424  0.72260286  0.45076098    -0.22800
C2782       C  0.81703298  0.74538953  0.47919816     0.00200
H2783       H  0.79834628  0.72651502  0.39647998     0.14000
H2784       H  0.83430307  0.69750958  0.45047884     0.14000
C2785       C  0.64970739  0.01398800  0.08366076     0.81400
N2786       N  0.64390814  0.99174573  0.05595017    -0.76900
C2787       C  0.66895692  0.98964893  0.03034332     0.83900
N2788       N  0.69138788  0.01784836  0.02619590    -0.76800
C2789       C  0.68963660  0.54075336  0.05939076     0.84000
N2790       N  0.67520802  0.03967660  0.08079259    -0.78500
Fe2791     Fe  0.94944900  0.93160722  0.26590807     1.65800
Fe2792     Fe  0.00478635  0.49816395  0.24537178     1.73200
Fe2793     Fe  0.93283380  0.98130596  0.19396731     1.54400
O2794       O  0.93926209  0.93150791  0.17367159    -0.80500
O2795       O  0.98072893  0.54571281  0.22486946    -0.78800
O2796       O  0.92656354  0.90132713  0.22257407    -0.83000
O2797       O  0.90026461  0.95444835  0.27371770    -0.77800
O2798       O  0.97676327  0.50318445  0.16450874    -0.79600
O2799       O  0.98542824  0.50992591  0.29426720    -0.82300
C2800       C  0.87668703  0.95184308  0.24949983     0.98400
C2801       C  0.92464952  0.90514886  0.18883832     1.05900
O2802       O  0.96343996  0.97004728  0.23469256    -1.11300
O2803       O  0.53303180  0.95420765  0.26970066    -0.73800
O2804       O  0.99848832  0.90728115  0.26162701    -0.77300
O2805       O  0.88428933  0.96152608  0.21801249    -0.77900
C2806       C  0.52575086  0.92097530  0.27417473     0.97300
O2807       O  0.97014110  0.95730051  0.31209489    -0.75900
O2808       O  0.02637848  0.49023502  0.19586882    -0.81100
C2809       C  0.94870641  0.55414369  0.21427427     0.99900
C2810       C  0.01142506  0.50462908  0.16895695     1.05900
O2811       O  0.92332184  0.53148403  0.21353963    -0.76700
C2812       C  0.98206087  0.48706157  0.31839017     1.04200
C2813       C  0.77878121  0.86863821  0.48266654    -0.27000
C2814       C  0.75426939  0.86748466  0.51027605     0.06600
C2815       C  0.74867591  0.83541531  0.52843798     0.26200
C2816       C  0.76543971  0.80441886  0.51685059    -0.11500
C2817       C  0.78827068  0.80557105  0.48771943    -0.25400
C2818       C  0.79574146  0.83826180  0.47171457     0.37000
C2819       C  0.72116065  0.88876201  0.02999388     0.06600
F2820       F  0.71628310  0.81784357  0.06135839    -0.19200
H2821       H  0.75860969  0.77927732  0.52883673     0.16500
F2822       F  0.81544155  0.84014524  0.44206391    -0.22900
H2823       H  0.78261007  0.89253302  0.46731994     0.18200
C2824       C  0.74092172  0.92046775  0.03187564     0.26200
C2825       C  0.72363432  0.95240433  0.02716460    -0.11500
C2826       C  0.68568717  0.95437898  0.02611324    -0.25500
C2827       C  0.66552736  0.92267626  0.02916486     0.37200
C2828       C  0.68324258  0.88988097  0.02949518    -0.27100
F2829       F  0.77764065  0.92021892  0.03445299    -0.19200
H2830       H  0.74058620  0.97566526  0.02565410     0.16400
F2831       F  0.62909725  0.92345905  0.03277405    -0.22900
H2832       H  0.68134991  0.86982390  0.51784034     0.18300
C2833       C  0.63780639  0.95803269  0.24999738    -0.27000
C2834       C  0.63152860  0.94547526  0.21563866     0.06600
C2835       C  0.61387342  0.91277950  0.21019087     0.26200
C2836       C  0.60128222  0.89388557  0.23860023    -0.11500
C2837       C  0.60609029  0.90693764  0.27262662    -0.25400
C2838       C  0.62498087  0.93871639  0.27858528     0.37000
C2839       C  0.64147003  0.96644535  0.18488907     0.06600
F2840       F  0.60614278  0.90046836  0.17727375    -0.19200
H2841       H  0.58463137  0.87073104  0.23403021     0.16500
F2842       F  0.62809128  0.95230133  0.31160281    -0.22900
H2843       H  0.65141965  0.98314861  0.25450463     0.18200
C2844       C  0.62902548  0.00132348  0.17990439     0.26200
C2845       C  0.63281985  0.01758995  0.14706023    -0.11500
C2846       C  0.64642473  0.99822622  0.11871471    -0.25500
C2847       C  0.66097513  0.96430062  0.12487706     0.37200
C2848       C  0.65934143  0.94915585  0.15781818    -0.27100
F2849       F  0.61156613  0.01873236  0.20589474    -0.19200
H2850       H  0.62431003  0.04472112  0.14352361     0.16400
F2851       F  0.67847440  0.94613930  0.09963241    -0.22900
H2852       H  0.67039327  0.92283772  0.16173545     0.18300
C2853       C  0.82120560  0.56307886  0.16194155    -0.27000
C2854       C  0.82608705  0.54420924  0.13034227     0.06600
C2855       C  0.86117180  0.53895089  0.11765874     0.26200
C2856       C  0.89051190  0.55447791  0.13525893    -0.11500
C2857       C  0.88486913  0.57492654  0.16544196    -0.25400
C2858       C  0.85048776  0.57802715  0.17957405     0.37000
C2859       C  0.79383637  0.53479438  0.10931220     0.06600
F2860       F  0.86683660  0.52046390  0.08755583    -0.19200
H2861       H  0.91731612  0.55251532  0.12430756     0.16500
F2862       F  0.84507137  0.59812756  0.20870143    -0.22900
H2863       H  0.79443898  0.56849171  0.17179120     0.18200
C2864       C  0.76301537  0.52287258  0.12666870     0.26200
C2865       C  0.72950190  0.52623418  0.11062991    -0.11500
C2866       C  0.72602478  0.53828461  0.07566179    -0.25500
C2867       C  0.75754621  0.54470352  0.05638393     0.37200
C2868       C  0.79120598  0.54436957  0.07355319    -0.27100
F2869       F  0.76505149  0.51029981  0.16017967    -0.19200
H2870       H  0.70640014  0.51954066  0.12625645     0.16400
F2871       F  0.75578409  0.55264425  0.02161433    -0.22900
H2872       H  0.81471089  0.55345546  0.05941844     0.18300
C2873       C  0.75788655  0.01080316  0.30339405    -0.27000
C2874       C  0.73759802  0.03328870  0.32486436     0.06600
C2875       C  0.75347519  0.56759705  0.33812525     0.26200
C2876       C  0.78689534  0.57808705  0.32493260    -0.11500
C2877       C  0.80785008  0.55390397  0.30594788    -0.25400
C2878       C  0.79259248  0.52159123  0.29531646     0.37000
C2879       C  0.71517781  0.01693606  0.35215844     0.06600
F2880       F  0.73619982  0.58905324  0.36110970    -0.19200
H2881       H  0.79855740  0.60301058  0.33379765     0.16500
F2882       F  0.81237354  0.99916139  0.27348480    -0.22900
H2883       H  0.75081879  0.98297189  0.30106726     0.18200
C2884       C  0.67738186  0.01990060  0.35218817     0.26200
C2885       C  0.65737154  0.00111747  0.37713898    -0.11500
C2886       C  0.67503825  0.97953576  0.40214378    -0.25500
C2887       C  0.71289200  0.97826475  0.40315824     0.37200
C2888       C  0.73274959  0.99682341  0.37834172    -0.27100
F2889       F  0.65994802  0.03929535  0.32716072    -0.19200
H2890       H  0.62810503  0.00178598  0.37583735     0.16400
F2891       F  0.73045646  0.95774764  0.42722692    -0.22900
H2892       H  0.76073166  0.50260932  0.39198640     0.18300
C2893       C  0.86951970  0.76121462  0.26013387    -0.27000
C2894       C  0.86039866  0.73292005  0.28233968     0.06600
C2895       C  0.82373762  0.72550137  0.28852275     0.26200
C2896       C  0.79681622  0.74398422  0.27047882    -0.11500
C2897       C  0.80578251  0.77031001  0.24610354    -0.25400
C2898       C  0.84224544  0.78021485  0.24247825     0.37000
C2899       C  0.88721700  0.70585155  0.29262029     0.06600
F2900       F  0.81393018  0.69759798  0.30893206    -0.19200
H2901       H  0.76913628  0.73582238  0.27398363     0.16500
F2902       F  0.85139287  0.80654884  0.21991830    -0.22900
H2903       H  0.89762236  0.76710216  0.25491024     0.18200
C2904       C  0.89954812  0.68294806  0.26622519     0.26200
C2905       C  0.90704211  0.64765946  0.27439648    -0.11500
C2906       C  0.90384842  0.63541578  0.30901381    -0.25500
C2907       C  0.89811460  0.65998544  0.33628880     0.37200
C2908       C  0.88962854  0.69512058  0.32798666    -0.27100
F2909       F  0.89810217  0.69287640  0.23188184    -0.19200
H2910       H  0.91090313  0.62898169  0.25321678     0.16400
F2911       F  0.89457581  0.64893616  0.37011221    -0.22900
H2912       H  0.88014463  0.71247596  0.34863266     0.18300
C2913       C  0.93233518  0.57324821  0.52467390    -0.27000
C2914       C  0.91321236  0.58551430  0.49490699     0.06600
C2915       C  0.91199049  0.62213443  0.48787624     0.26200
C2916       C  0.43155523  0.64640498  0.50652351    -0.11500
C2917       C  0.95128719  0.63658112  0.03014826    -0.25400
C2918       C  0.94385890  0.60155360  0.04013517     0.37000
C2919       C  0.90267997  0.56116232  0.46624445     0.06600
F2920       F  0.39455906  0.63899203  0.45581776    -0.19200
H2921       H  0.43357475  0.67422556  0.50033405     0.16500
F2922       F  0.95903771  0.58797804  0.06993131    -0.22900
H2923       H  0.93384710  0.54511249  0.53018156     0.18200
C2924       C  0.93048403  0.54568397  0.44669456     0.26200
C2925       C  0.92516441  0.53911147  0.41084430    -0.11500
C2926       C  0.89182846  0.54624331  0.39469979    -0.25500
C2927       C  0.86236850  0.55622237  0.41556843     0.37200
C2928       C  0.86788756  0.56367490  0.45128076    -0.27100
F2929       F  0.96423180  0.54235637  0.46080111    -0.19200
H2930       H  0.94789068  0.53183390  0.39498500     0.16400
F2931       F  0.82977700  0.56392543  0.40055662    -0.22900
H2932       H  0.84624815  0.57576187  0.46599509     0.18300
C2933       C  0.90097212  0.88200297  0.35236524    -0.27000
C2934       C  0.88316280  0.89039290  0.38368214     0.06600
C2935       C  0.85462106  0.91504986  0.38289608     0.26200
C2936       C  0.84131805  0.92723618  0.35072679    -0.11500
C2937       C  0.85556879  0.91421977  0.31942340    -0.25400
C2938       C  0.88637167  0.89276238  0.32019837     0.37000
C2939       C  0.88819609  0.86750058  0.41468980     0.06600
F2940       F  0.83635577  0.92358809  0.41246933    -0.19200
H2941       H  0.81729118  0.94360144  0.35001123     0.16500
F2942       F  0.89934993  0.87872685  0.29001124    -0.22900
H2943       H  0.92346662  0.86367082  0.35257243     0.18200
C2944       C  0.88690183  0.83040908  0.41060036     0.26200
C2945       C  0.88526541  0.80864042  0.43995396    -0.11500
C2946       C  0.88504251  0.82306717  0.47408639    -0.25500
C2947       C  0.88584857  0.86031352  0.47803796     0.37200
C2948       C  0.88822952  0.88211789  0.44860369    -0.27100
F2949       F  0.88496017  0.81503166  0.37825111    -0.19200
H2950       H  0.88360637  0.78033239  0.43576335     0.16400
F2951       F  0.88357852  0.87602300  0.51001337    -0.22900
H2952       H  0.88893825  0.91059186  0.45228500     0.18300
C2953       C  0.48732844  0.72585914  0.43818372    -0.27000
C2954       C  0.52242497  0.72937370  0.45211286     0.06600
C2955       C  0.52763644  0.73239793  0.48870693     0.26200
C2956       C  0.49812893  0.73683507  0.51031765    -0.11500
C2957       C  0.46297383  0.73774338  0.49603173    -0.25400
C2958       C  0.45769403  0.72911258  0.46009264     0.37000
C2959       C  0.55379189  0.72928428  0.42894301     0.06600
F2960       F  0.56133169  0.73233863  0.50347546    -0.19200
H2961       H  0.50004582  0.73990321  0.03737938     0.16500
F2962       F  0.92419644  0.72824385  0.44383626    -0.22900
H2963       H  0.48278101  0.72202780  0.41018167     0.18200
C2964       C  0.55820939  0.70185525  0.40456153     0.26200
C2965       C  0.59176126  0.69677722  0.38960387    -0.11500
C2966       C  0.62163083  0.71741176  0.40035558    -0.25500
C2967       C  0.61622889  0.74716546  0.42166016     0.37200
C2968       C  0.58203242  0.75369797  0.43495614    -0.27100
F2969       F  0.53207178  0.67695237  0.39930851    -0.19200
H2970       H  0.59585695  0.67299150  0.37436986     0.16400
F2971       F  0.64474485  0.76636797  0.43413827    -0.22900
H2972       H  0.57866016  0.77551438  0.45318978     0.18300
C2973       C  0.50482754  0.95913174  0.05553325    -0.27000
C2974       C  0.51512304  0.92790433  0.07311443     0.06600
C2975       C  0.54276848  0.92931893  0.09898571     0.26200
C2976       C  0.55637224  0.96195582  0.10994765    -0.11500
C2977       C  0.54256268  0.99327941  0.09549395    -0.25400
C2978       C  0.52270524  0.49447364  0.06562011     0.37000
C2979       C  0.99701617  0.89690608  0.06171244     0.06600
F2980       F  0.55356310  0.89984177  0.11665102    -0.19200
H2981       H  0.57505822  0.96303356  0.13214551     0.16500
F2982       F  0.50921200  0.52425903  0.05046108    -0.22900
H2983       H  0.48418436  0.95847470  0.03497418     0.18200
C2984       C  0.95943087  0.90077948  0.06514648     0.26200
C2985       C  0.93731593  0.87109145  0.06676673    -0.11500
C2986       C  0.95165545  0.83690655  0.06319668    -0.25500
C2987       C  0.48741118  0.83158747  0.06803319     0.37200
C2988       C  0.50869653  0.86215853  0.06803558    -0.27100
F2989       F  0.94419928  0.93317966  0.06943211    -0.19200
H2990       H  0.90863822  0.87497102  0.07032702     0.16400
F2991       F  0.50429618  0.79977391  0.06699272    -0.22900
H2992       H  0.53780857  0.85953332  0.06691067     0.18300
C2993       C  0.00444051  0.83775314  0.16768782    -0.27000
C2994       C  0.00584130  0.80970539  0.19159191     0.06600
C2995       C  0.97411135  0.79047721  0.19897430     0.26200
C2996       C  0.94100300  0.80111264  0.18411103    -0.11500
C2997       C  0.93955752  0.83082317  0.16195171    -0.25400
C2998       C  0.97178638  0.84823438  0.15314616     0.37000
C2999       C  0.53757271  0.80394127  0.21709888     0.06600
F3000       F  0.97491472  0.76275108  0.22175695    -0.19200
H3001       H  0.91632884  0.78791056  0.19182639     0.16500
F3002       F  0.97117881  0.87849704  0.13421556    -0.22900
H3003       H  0.52663903  0.85402848  0.16922038     0.18200
C3004       C  0.57055705  0.80405063  0.19927346     0.26200
C3005       C  0.60294704  0.80304129  0.21806830    -0.11500
C3006       C  0.60323533  0.79941420  0.25498073    -0.25500
C3007       C  0.57005972  0.80038270  0.27285912     0.37200
C3008       C  0.53759308  0.80310264  0.25398522    -0.27100
F3009       F  0.57146556  0.80438585  0.16350833    -0.19200
H3010       H  0.62770858  0.80254397  0.20320127     0.16400
F3011       F  0.56867537  0.79645835  0.30833750    -0.22900
H3012       H  0.51244050  0.80435597  0.26819518     0.18300
C3013       C  0.61773200  0.63919366  0.31353243    -0.27000
C3014       C  0.58051366  0.64217617  0.30607575     0.06600
C3015       C  0.56570131  0.67550938  0.29856714     0.26200
C3016       C  0.58751079  0.70544392  0.30010787    -0.11500
C3017       C  0.62470065  0.70267580  0.30803602    -0.25400
C3018       C  0.63980865  0.66905636  0.31383060     0.37000
C3019       C  0.55697970  0.61145179  0.31191217     0.06600
F3020       F  0.53016052  0.67916938  0.28979160    -0.19200
H3021       H  0.57522695  0.73057657  0.29376117     0.16500
F3022       F  0.67584043  0.66501493  0.31974179    -0.22900
H3023       H  0.62964881  0.61388695  0.32037842     0.18200
C3024       C  0.56813470  0.57726059  0.30214354     0.26200
C3025       C  0.55267843  0.54784509  0.31807910    -0.11500
C3026       C  0.52532857  0.55251888  0.34264711    -0.25500
C3027       C  0.51098348  0.58608996  0.34888678     0.37200
C3028       C  0.52689972  0.61553523  0.33370964    -0.27100
F3029       F  0.59573461  0.57252670  0.27943325    -0.19200
H3030       H  0.56333308  0.52165092  0.31298789     0.16400
F3031       F  0.98495826  0.59238085  0.37413996    -0.22900
H3032       H  0.51773507  0.64150801  0.34163768     0.18300
C3033       C  0.67100992  0.67448188  0.10241074    -0.27000
C3034       C  0.68664386  0.65967903  0.13296038     0.06600
C3035       C  0.71014365  0.63079536  0.13036473     0.26200
C3036       C  0.72326028  0.62161567  0.09771678    -0.11500
C3037       C  0.71063930  0.63893541  0.06747136    -0.25400
C3038       C  0.68293924  0.66391024  0.06951858     0.37000
C3039       C  0.68529193  0.67976618  0.16574526     0.06600
F3040       F  0.72387666  0.61466847  0.15959828    -0.19200
H3041       H  0.74570182  0.60357924  0.09635038     0.16500
F3042       F  0.67086676  0.68096582  0.04017381    -0.22900
H3043       H  0.65265011  0.69669472  0.10403203     0.18200
C3044       C  0.71769656  0.68988881  0.18306030     0.26200
C3045       C  0.71671323  0.71246280  0.21182975    -0.11500
C3046       C  0.68384019  0.72607741  0.22282978    -0.25500
C3047       C  0.65139722  0.71563381  0.20590971     0.37200
C3048       C  0.65220931  0.69268740  0.17739947    -0.27100
F3049       F  0.75045357  0.67915324  0.17145815    -0.19200
H3050       H  0.74155809  0.71944445  0.22502697     0.16400
F3051       F  0.61883524  0.72656513  0.21770246    -0.22900
H3052       H  0.62711907  0.68513687  0.16427988     0.18300
N3053       N  0.73138501  0.63579930  0.53695315    -0.02300
C3054       C  0.76439813  0.65084750  0.53343773     0.00300
C3055       C  0.77727952  0.64224826  0.50041943    -0.22600
C3056       C  0.75069060  0.62206920  0.48338090    -0.22800
C3057       C  0.72234378  0.61833858  0.50660341     0.00200
H3058       H  0.80318807  0.64970580  0.48977011     0.14000
H3059       H  0.75253626  0.60957903  0.95724725     0.14000
N3060       N  0.51773168  0.52243853  0.86436164    -0.02300
C3061       C  0.52565357  0.52028017  0.89913016     0.00300
C3062       C  0.51281543  0.98969309  0.91120378    -0.22600
C3063       C  0.99444754  0.97471151  0.88493106    -0.22800
C3064       C  0.99455267  0.49559816  0.85321704     0.00200
H3065       H  0.51589251  0.97967053  0.93778470     0.14000
H3066       H  0.97962824  0.94998244  0.88652321     0.14000
N3067       N  0.90299601  0.85097783  0.65777704    -0.02300
C3068       C  0.89634420  0.88488083  0.66772546     0.00300
C3069       C  0.86390376  0.89587461  0.65297029    -0.22600
C3070       C  0.84984826  0.86753430  0.63402141    -0.22800
C3071       C  0.87445159  0.84005210  0.63693161     0.00200
H3072       H  0.85169361  0.92172597  0.65570166     0.14000
H3073       H  0.82426476  0.86705736  0.61979045     0.14000
C3074       C  0.63636956  0.78345856  0.76648441     0.81400
N3075       N  0.63195490  0.76623657  0.79744235    -0.76900
C3076       C  0.64874371  0.73482063  0.80276687     0.83900
N3077       N  0.67937597  0.72852895  0.78491386    -0.76800
C3078       C  0.68304554  0.74361527  0.75297748     0.84000
N3079       N  0.66414305  0.77350175  0.74571330    -0.78500
Fe3080     Fe  0.75495519  0.80113088  0.83652394     1.65800
Fe3081     Fe  0.68505980  0.82040080  0.88898786     1.73200
Fe3082     Fe  0.70380935  0.87307976  0.81977013     1.54400
O3083       O  0.75496919  0.89329639  0.82768753    -0.80500
O3084       O  0.63690037  0.84243069  0.86477959    -0.78800
O3085       O  0.78532460  0.84469599  0.81373180    -0.83000
O3086       O  0.73396212  0.79199134  0.78798631    -0.77800
O3087       O  0.68286553  0.90264709  0.86437837    -0.79600
O3088       O  0.67252488  0.77113915  0.86967002    -0.82300
C3089       C  0.73358648  0.81573144  0.76463017     0.98400
C3090       C  0.78103376  0.87861168  0.81203973     1.05900
O3091       O  0.71465039  0.83161235  0.84853412    -1.11300
O3092       O  0.72990618  0.79630426  0.91716871    -0.73800
O3093       O  0.77857457  0.80710317  0.88489243    -0.77300
O3094       O  0.72280379  0.84742852  0.77195464    -0.77900
C3095       C  0.76398588  0.79274759  0.91140568     0.99300
O3096       O  0.72839435  0.75450208  0.85684002    -0.75900
O3097       O  0.69557123  0.86904812  0.91102835    -0.81100
C3098       C  0.62866040  0.85427787  0.83384089     0.99900
C3099       C  0.68133883  0.89669894  0.89784323     1.05900
O3100       O  0.65213783  0.85562852  0.80984659    -0.76700
C3101       C  0.69656939  0.74734155  0.86841379     1.04200
N3102       N  0.54714492  0.52443260  0.61411396    -0.02300
C3103       C  0.53435726  0.52975572  0.64724707     0.00300
C3104       C  0.54415826  0.56352389  0.65813283    -0.22600
C3105       C  0.56292309  0.57927680  0.63086413    -0.22800
C3106       C  0.56478313  0.55472788  0.60379274     0.00200
H3107       H  0.53772937  0.57579757  0.68303270     0.14000
H3108       H  0.57357001  0.60604120  0.63070779     0.14000
N3109       N  0.65727745  0.70140799  0.90026667    -0.02300
C3110       C  0.66267374  0.66917966  0.91526743     0.00300
C3111       C  0.69740835  0.65815499  0.90796850    -0.22600
C3112       C  0.71375479  0.68491261  0.88868179    -0.22800
C3113       C  0.68842443  0.71156387  0.88403851     0.00200
H3114       H  0.70975200  0.63349083  0.91598734     0.14000
H3115       H  0.74142189  0.68512782  0.87976408     0.14000
N3116       N  0.83057928  0.92155019  0.79100814    -0.02300
C3117       C  0.80115266  0.90048772  0.78527972     0.00300
C3118       C  0.79037818  0.90375033  0.75034501    -0.22600
C3119       C  0.81458565  0.92658770  0.73431400    -0.22800
C3120       C  0.83967198  0.93696793  0.75978411     0.00200
H3121       H  0.76762290  0.89068399  0.73759259     0.14000
H3122       H  0.81453695  0.93369413  0.70672438     0.14000
C3123       C  0.93092988  0.76122094  0.01242253     0.81400
N3124       N  0.94342604  0.77332712  0.54543363    -0.76900
C3125       C  0.92700068  0.80403872  0.55446940     0.83900
N3126       N  0.89514949  0.81794039  0.03773061    -0.76800
C3127       C  0.88565492  0.80456565  0.00587462     0.84000
N3128       N  0.90140510  0.77402823  0.99533638    -0.78500
Fe3129     Fe  0.55892096  0.55066689  0.49528626     1.65800
Fe3130     Fe  0.62864826  0.57246737  0.94127714     1.73200
Fe3131     Fe  0.61204814  0.62072338  0.51420426     1.54400
O3132       O  0.56157439  0.64222408  0.50732228    -0.80500
O3133       O  0.67730521  0.59249193  0.96637950    -0.78800
O3134       O  0.52907696  0.59416931  0.51935803    -0.83000
O3135       O  0.57924861  0.53903574  0.54441165    -0.77800
O3136       O  0.63429470  0.65237852  0.97022444    -0.79600
O3137       O  0.64149409  0.52235419  0.95643478    -0.82300
C3138       C  0.58038945  0.56278414  0.56800572     0.98400
C3139       C  0.53459777  0.62793964  0.52215919     1.05900
O3140       O  0.59994777  0.58084233  0.48385041    -1.11300
O3141       O  0.58284339  0.54988030  0.91299058    -0.73800
O3142       O  0.53587699  0.55761217  0.94815355    -0.77300
O3143       O  0.59193603  0.59423149  0.56067091    -0.77900
C3144       C  0.54921435  0.54513845  0.92027848     0.97300
O3145       O  0.58596227  0.00456937  0.47330828    -0.75900
O3146       O  0.61927705  0.62247495  0.92192616    -0.81100
C3147       C  0.68604512  0.60178787  0.49841896     0.99900
C3148       C  0.63584238  0.64815615  0.93665271     1.05900
O3149       O  0.66284423  0.60134482  0.52270653    -0.76700
C3150       C  0.61778330  0.99726159  0.96154456     1.04200
N3151       N  0.47790153  0.65381632  0.55243403    -0.02300
C3152       C  0.51423686  0.65091406  0.54805824     0.00300
C3153       C  0.53135830  0.67492407  0.57058016    -0.22600
C3154       C  0.50482637  0.69299755  0.58878979    -0.22800
C3155       C  0.97341422  0.68332304  0.57566637     0.00200
H3156       H  0.56021989  0.67934012  0.57310626     0.14000
H3157       H  0.50917430  0.71432884  0.60748397     0.14000
N3158       N  0.77586660  0.78350521  0.72203748    -0.02300
C3159       C  0.77645822  0.77734324  0.68650145     0.00300
C3160       C  0.74826061  0.79627918  0.67097102    -0.22600
C3161       C  0.73019435  0.81414774  0.69734004    -0.22800
C3162       C  0.74707630  0.80539298  0.72877711     0.00200
H3163       H  0.74138808  0.79701652  0.64315981     0.14000
H3164       H  0.70645241  0.83057002  0.69396682     0.14000
N3165       N  0.65457910  0.95359898  0.92501948    -0.02300
C3166       C  0.65698623  0.91784639  0.92161842     0.00300
C3167       C  0.63108592  0.90235696  0.94281497    -0.22600
C3168       C  0.61221181  0.92947000  0.95902700    -0.22800
C3169       C  0.62790271  0.96094929  0.94859257     0.00200
H3170       H  0.62572210  0.87426710  0.94547746     0.14000
H3171       H  0.58987803  0.92639202  0.97687822     0.14000
C3172       C  0.89206248  0.59538363  0.80759219     0.81400
N3173       N  0.86183168  0.58306036  0.79078560    -0.76900
C3174       C  0.84393518  0.55433488  0.80302835     0.83900
N3175       N  0.85731080  0.53710790  0.83172242    -0.76800
C3176       C  0.88638281  0.54995863  0.84973986     0.84000
N3177       N  0.90462121  0.57814554  0.83656341    -0.78500
Fe3178     Fe  0.86212826  0.67898537  0.56991503     1.65800
Fe3179     Fe  0.80958615  0.74899361  0.58867929     1.73200
Fe3180     Fe  0.88145155  0.73032554  0.64108194     1.54400
O3181       O  0.87284926  0.68072959  0.66066166    -0.80500
O3182       O  0.83574864  0.79542329  0.61028087    -0.78800
O3183       O  0.88517405  0.64890535  0.61313232    -0.83000
O3184       O  0.91275700  0.69710866  0.56089691    -0.77800
O3185       O  0.83615685  0.75222299  0.67065658    -0.79600
O3186       O  0.82810891  0.76067969  0.53947058    -0.82300
C3187       C  0.93691271  0.69811156  0.58478410     0.98400
C3188       C  0.88829822  0.65452108  0.64651891     1.05900
O3189       O  0.85133764  0.71965396  0.59967504    -1.11300
O3190       O  0.77966602  0.70570310  0.56425797    -0.73800
O3191       O  0.81170654  0.65744973  0.57629889    -0.77300
O3192       O  0.92981627  0.71015607  0.61583589    -0.77900
C3193       C  0.78502952  0.67212167  0.56089787     0.97300
O3194       O  0.84203801  0.70566704  0.52337694    -0.75900
O3195       O  0.78786571  0.73968255  0.63744793    -0.81100
C3196       C  0.86754487  0.80365514  0.62225120     0.99900
C3197       C  0.80161475  0.75390409  0.66498436     1.05900
O3198       O  0.89242858  0.78073795  0.62437003    -0.76700
C3199       C  0.83049979  0.73705081  0.51585046     1.04200
N3200       N  0.91313106  0.59946922  0.67724226    -0.02300
C3201       C  0.91502876  0.63414700  0.66878768     0.00300
C3202       C  0.94576832  0.64848602  0.68473618    -0.22600
C3203       C  0.96289800  0.62125094  0.70321715    -0.22800
C3204       C  0.94166697  0.59123514  0.69867327     0.00200
H3205       H  0.95495604  0.67568995  0.68297054     0.14000
H3206       H  0.98780756  0.62332303  0.71842765     0.14000
N3207       N  0.58273932  0.88957695  0.79722858    -0.02300
C3208       C  0.54742840  0.89876818  0.79905460     0.00300
C3209       C  0.53361346  0.88463664  0.82979784    -0.22600
C3210       C  0.56160626  0.86657188  0.84689947    -0.22800
C3211       C  0.59175759  0.86943348  0.82585505     0.00200
H3212       H  0.00330208  0.88101364  0.83742723     0.14000
H3213       H  0.55994262  0.85277438  0.87181202     0.14000
N3214       N  0.79329962  0.77190398  0.96926944    -0.02300
C3215       C  0.78719935  0.76890670  0.93401274     0.00300
C3216       C  0.80648306  0.74044393  0.92117550    -0.22600
C3217       C  0.82445652  0.72520342  0.94960995    -0.22800
C3218       C  0.81639206  0.74518271  0.97908133     0.00200
H3219       H  0.80712920  0.73145026  0.89410060     0.14000
H3220       H  0.84170323  0.70210285  0.94876160     0.14000
C3221       C  0.64035580  0.00694631  0.58158407     0.81400
N3222       N  0.64144362  0.98655882  0.55215800    -0.76900
C3223       C  0.66821448  0.99169510  0.52859162     0.83900
N3224       N  0.68741689  0.02236649  0.53056129    -0.76800
C3225       C  0.69544755  0.53962168  0.55690027     0.84000
N3226       N  0.65867836  0.03799068  0.58179425    -0.78500
Fe3227     Fe  0.94701749  0.93313827  0.76693859     1.65800
Fe3228     Fe  0.00467217  0.49868200  0.74411232     1.73200
Fe3229     Fe  0.93049397  0.98438920  0.69616804     1.54400
O3230       O  0.93479000  0.93495091  0.67463635    -0.80500
O3231       O  0.98123774  0.54646066  0.72359524    -0.78800
O3232       O  0.92291621  0.90402466  0.72344574    -0.83000
O3233       O  0.89861591  0.95757330  0.77576849    -0.77800
O3234       O  0.97731667  0.50352246  0.66295854    -0.79600
O3235       O  0.98468340  0.51006887  0.79293900    -0.82300
C3236       C  0.87453458  0.95586589  0.75197961     0.98400
C3237       C  0.92049421  0.90836621  0.68976950     1.05900
O3238       O  0.96169467  0.97134787  0.73585203    -1.11300
O3239       O  0.53327787  0.95410993  0.76816548    -0.73800
O3240       O  0.99550011  0.90748068  0.76201766    -0.77300
O3241       O  0.88194048  0.96548409  0.72046723    -0.77900
C3242       C  0.52590688  0.92092645  0.77288771     0.97300
O3243       O  0.96905023  0.95764452  0.81299379    -0.75900
O3244       O  0.02663476  0.49055638  0.69491603    -0.81100
C3245       C  0.94928362  0.55507415  0.71309274     0.99900
C3246       C  0.01198923  0.50462239  0.66769798     1.05900
O3247       O  0.92388895  0.53244405  0.71209258    -0.76700
C3248       C  0.98118438  0.48691706  0.81682410     1.04200
C3249       C  0.76261439  0.86234796  0.98892768    -0.27000
C3250       C  0.74053026  0.85728197  0.01795417     0.06600
C3251       C  0.73774269  0.82341969  0.03319485     0.26200
C3252       C  0.75706060  0.79500777  0.01863303    -0.11500
C3253       C  0.77955799  0.80082090  0.98957198    -0.25400
C3254       C  0.78264504  0.83516212  0.97580602     0.37000
C3255       C  0.73187279  0.89895874  0.51597309     0.06600
F3256       F  0.72572181  0.83373168  0.55596586    -0.19200
H3257       H  0.75341252  0.76850658  0.02893233     0.16500
F3258       F  0.80240657  0.84222416  0.94706973    -0.22900
H3259       H  0.76409951  0.88778698  0.97570592     0.18200
C3260       C  0.74764081  0.93278253  0.51464781     0.26200
C3261       C  0.72601782  0.96261429  0.51384526    -0.11500
C3262       C  0.68834854  0.95983186  0.51776963    -0.25500
C3263       C  0.67256522  0.92580199  0.51954591     0.37200
C3264       C  0.69415620  0.89568940  0.51769761    -0.27100
F3265       F  0.78414569  0.93707155  0.51472034    -0.19200
H3266       H  0.73947138  0.98801103  0.51259351     0.16400
F3267       F  0.63674949  0.92151262  0.52564224    -0.22900
H3268       H  0.66752453  0.86561508  0.02828481     0.18300
C3269       C  0.64582024  0.94319740  0.74489009    -0.27000
C3270       C  0.63476665  0.93261960  0.71102262     0.06600
C3271       C  0.61118269  0.90372559  0.70631185     0.26200
C3272       C  0.59629920  0.88766051  0.73537165    -0.11500
C3273       C  0.60529658  0.89965899  0.76911511    -0.25400
C3274       C  0.63111533  0.92653795  0.77409365     0.37000
C3275       C  0.64262829  0.95449067  0.68063859     0.06600
F3276       F  0.59952397  0.89364735  0.67369490    -0.19200
H3277       H  0.57528357  0.86799523  0.73162979     0.16500
F3278       F  0.63917333  0.93877533  0.80689943    -0.22900
H3279       H  0.66391491  0.96560454  0.74856862     0.18200
C3280       C  0.62823176  0.98877913  0.67803200     0.26200
C3281       C  0.62757490  0.00592691  0.64557436    -0.11500
C3282       C  0.63992174  0.98844193  0.61547329    -0.25500
C3283       C  0.65740578  0.95544723  0.61928343     0.37200
C3284       C  0.65844381  0.93861842  0.65159504    -0.27100
F3285       F  0.61282387  0.00459680  0.70620789    -0.19200
H3286       H  0.61698319  0.03251728  0.64386643     0.16400
F3287       F  0.67495653  0.93987910  0.59241677    -0.22900
H3288       H  0.67034841  0.91246472  0.65373058     0.18300
C3289       C  0.82310679  0.56221572  0.65792081    -0.27000
C3290       C  0.83029054  0.54186542  0.62776737     0.06600
C3291       C  0.86605494  0.53714820  0.61690637     0.26200
C3292       C  0.89403863  0.55430906  0.63508400    -0.11500
C3293       C  0.88621744  0.57610282  0.66383006    -0.25400
C3294       C  0.85096065  0.57922348  0.67589141     0.37000
C3295       C  0.79950273  0.53076601  0.60575267     0.06600
F3296       F  0.87359016  0.51750292  0.58797105    -0.19200
H3297       H  0.92147701  0.55239435  0.62568865     0.16500
F3298       F  0.84339846  0.60087123  0.70339681    -0.22900
H3299       H  0.79562649  0.56695488  0.66619193     0.18200
C3300       C  0.76912478  0.51654344  0.62209723     0.26200
C3301       C  0.73559152  0.51952520  0.60591248    -0.11500
C3302       C  0.73193791  0.53486363  0.57225753    -0.25500
C3303       C  0.76327931  0.54324520  0.55347340     0.37200
C3304       C  0.79692407  0.54227643  0.57060378    -0.27100
F3305       F  0.77144289  0.50292159  0.65518444    -0.19200
H3306       H  0.71254214  0.51056826  0.62050203     0.16400
F3307       F  0.76127143  0.55392558  0.51945531    -0.22900
H3308       H  0.82031387  0.55291166  0.55734157     0.18300
C3309       C  0.75440050  0.01503389  0.80622698    -0.27000
C3310       C  0.73999184  0.03597883  0.83312201     0.06600
C3311       C  0.75135309  0.56741238  0.83223912     0.26200
C3312       C  0.78443834  0.57747138  0.81801052    -0.11500
C3313       C  0.80460476  0.55287196  0.79872797    -0.25400
C3314       C  0.78848500  0.52092413  0.78823680     0.37000
C3315       C  0.71584640  0.01925763  0.85859467     0.06600
F3316       F  0.73520480  0.58907058  0.85582304    -0.19200
H3317       H  0.79669309  0.60224014  0.82655437     0.16500
F3318       F  0.80290619  0.00244606  0.76785840    -0.22900
H3319       H  0.74261548  0.98938283  0.80003198     0.18200
C3320       C  0.67947596  0.01216041  0.85026641     0.26200
C3321       C  0.65865511  0.99209128  0.87339983    -0.11500
C3322       C  0.67429056  0.97844831  0.90440430    -0.25500
C3323       C  0.71036010  0.98617139  0.91308610     0.37200
C3324       C  0.73094739  0.00678865  0.89041012    -0.27100
F3325       F  0.66462672  0.02362926  0.81943190    -0.19200
H3326       H  0.63083082  0.98577775  0.86654144     0.16400
F3327       F  0.72583549  0.97254104  0.94273910    -0.22900
H3328       H  0.76199909  0.49923631  0.88362512     0.18300
C3329       C  0.86494505  0.76118945  0.76296519    -0.27000
C3330       C  0.85514587  0.73267257  0.78455501     0.06600
C3331       C  0.81834146  0.72575780  0.79046649     0.26200
C3332       C  0.79196243  0.74420144  0.77156451    -0.11500
C3333       C  0.80183340  0.77026328  0.74718602    -0.25400
C3334       C  0.83828489  0.78030659  0.74477372     0.37000
C3335       C  0.88103755  0.70403599  0.79186855     0.06600
F3336       F  0.80801386  0.69809864  0.81096114    -0.19200
H3337       H  0.76407655  0.73620596  0.77435200     0.16500
F3338       F  0.84804125  0.80676435  0.72262703    -0.22900
H3339       H  0.89319246  0.76669476  0.75805483     0.18200
C3340       C  0.89068092  0.68238846  0.76345176     0.26200
C3341       C  0.89968201  0.64709896  0.76926163    -0.11500
C3342       C  0.90006167  0.63327324  0.80340575    -0.25500
C3343       C  0.89630830  0.65646486  0.83228721     0.37200
C3344       C  0.88630472  0.69172034  0.82640188    -0.27100
F3345       F  0.88511859  0.69350966  0.72986709    -0.19200
H3346       H  0.90156266  0.62949430  0.74692706     0.16400
F3347       F  0.89645302  0.64395334  0.86582374    -0.22900
H3348       H  0.87865233  0.70806482  0.84854730     0.18300
C3349       C  0.92297632  0.57974347  0.01804083    -0.27000
C3350       C  0.90901129  0.59313090  0.98620544     0.06600
C3351       C  0.91401099  0.62911195  0.97782720     0.26200
C3352       C  0.43154254  0.64937657  0.00244209    -0.11500
C3353       C  0.95347164  0.63315027  0.53639259    -0.25400
C3354       C  0.95213409  0.59712442  0.54563557     0.37000
C3355       C  0.89813148  0.56888773  0.95772556     0.06600
F3356       F  0.39402758  0.64360083  0.95165603    -0.19200
H3357       H  0.43474558  0.67714506  0.99655287     0.16500
F3358       F  0.97220841  0.58492251  0.57326661    -0.22900
H3359       H  0.91981353  0.55193722  0.02446972     0.18200
C3360       C  0.92556578  0.55080523  0.94002956     0.26200
C3361       C  0.92011858  0.54027122  0.90519127    -0.11500
C3362       C  0.88705557  0.54657304  0.88815924    -0.25500
C3363       C  0.85794481  0.56012811  0.90752204     0.37200
C3364       C  0.86369867  0.57170187  0.94212532    -0.27100
F3365       F  0.95919751  0.54827902  0.95457720    -0.19200
H3366       H  0.94275236  0.53079721  0.89036155     0.16400
F3367       F  0.82566146  0.56707563  0.89152382    -0.22900
H3368       H  0.84248830  0.58603818  0.95536992     0.18300
C3369       C  0.89232985  0.89470388  0.86248143    -0.27000
C3370       C  0.86996415  0.90186806  0.89113562     0.06600
C3371       C  0.84081168  0.92535816  0.88695165     0.26200
C3372       C  0.83096492  0.93666266  0.85323625    -0.11500
C3373       C  0.84935993  0.92361123  0.82395324    -0.25400
C3374       C  0.88123874  0.90420412  0.82874308     0.37000
C3375       C  0.87140998  0.87762178  0.92131316     0.06600
F3376       F  0.81883609  0.93302174  0.91425088    -0.19200
H3377       H  0.80625192  0.95163864  0.84949549     0.16500
F3378       F  0.89836227  0.88990876  0.80075822    -0.22900
H3379       H  0.91530190  0.87715115  0.86558013     0.18200
C3380       C  0.87077847  0.84086012  0.91505362     0.26200
C3381       C  0.87267163  0.81731101  0.94299366    -0.11500
C3382       C  0.87467193  0.82967238  0.97786360    -0.25500
C3383       C  0.87209675  0.86657160  0.98412908     0.37200
C3384       C  0.87098854  0.89029765  0.95593886    -0.27100
F3385       F  0.86709251  0.82760425  0.88188981    -0.19200
H3386       H  0.87272648  0.78926548  0.93713585     0.16400
F3387       F  0.87119404  0.88000839  0.01720214    -0.22900
H3388       H  0.87021529  0.91853000  0.96113140     0.18300
C3389       C  0.48926469  0.73561696  0.93594179    -0.27000
C3390       C  0.52357838  0.73452923  0.95189540     0.06600
C3391       C  0.52677588  0.73346886  0.98875504     0.26200
C3392       C  0.49636151  0.73791270  0.00920614    -0.11500
C3393       C  0.46215331  0.74250620  0.99343012    -0.25400
C3394       C  0.45860761  0.73867427  0.95648506     0.37000
C3395       C  0.55607164  0.73346825  0.93033841     0.06600
F3396       F  0.55943526  0.72910474  0.00500439    -0.19200
H3397       H  0.50315004  0.74189540  0.53791109     0.16500
F3398       F  0.92420122  0.74630035  0.93698393    -0.22900
H3399       H  0.48624526  0.73524758  0.90750315     0.18200
C3400       C  0.55924336  0.70763925  0.90408816     0.26200
C3401       C  0.59279691  0.70101098  0.88987816    -0.11500
C3402       C  0.62354761  0.71927711  0.90211592    -0.25500
C3403       C  0.61980578  0.74755796  0.92565031     0.37200
C3404       C  0.58591430  0.75506157  0.93921678    -0.27100
F3405       F  0.53131188  0.68556041  0.89583622    -0.19200
H3406       H  0.59576021  0.67794096  0.87336052     0.16400
F3407       F  0.64941182  0.76431172  0.93925580    -0.22900
H3408       H  0.58361137  0.77550460  0.95912275     0.18300
C3409       C  0.50338938  0.96092145  0.55334587    -0.27000
C3410       C  0.51197363  0.92973486  0.57169939     0.06600
C3411       C  0.53707922  0.93076853  0.59977551     0.26200
C3412       C  0.55081427  0.96301605  0.61123368    -0.11500
C3413       C  0.53962669  0.99453862  0.59514089    -0.25400
C3414       C  0.52077536  0.48994080  0.56508769     0.37000
C3415       C  0.99315063  0.89486261  0.57041671     0.06600
F3416       F  0.54503636  0.90127386  0.61875004    -0.19200
H3417       H  0.56735404  0.96370071  0.63495527     0.16500
F3418       F  0.50749350  0.51984147  0.54996061    -0.22900
H3419       H  0.48408552  0.96039462  0.53158062     0.18200
C3420       C  0.95527805  0.89760113  0.57153491     0.26200
C3421       C  0.93402211  0.86718526  0.57111391    -0.11500
C3422       C  0.94978107  0.83352409  0.56791301    -0.25500
C3423       C  0.48781315  0.83348799  0.56293369     0.37200
C3424       C  0.50779116  0.86478214  0.56310340    -0.27100
F3425       F  0.93888338  0.92950302  0.57542842    -0.19200
H3426       H  0.90495028  0.87012413  0.57201127     0.16400
F3427       F  0.50601089  0.80259919  0.55982876    -0.22900
H3428       H  0.53698501  0.86346206  0.56139880     0.18300
C3429       C  0.00075104  0.83974187  0.67500186    -0.27000
C3430       C  0.00109453  0.81163226  0.69880528     0.06600
C3431       C  0.96870252  0.79335015  0.70586382     0.26200
C3432       C  0.93629425  0.80405070  0.68946609    -0.11500
C3433       C  0.93611347  0.83321994  0.66654383    -0.25400
C3434       C  0.96884044  0.85041965  0.65920900     0.37000
C3435       C  0.53708093  0.80236691  0.71162830     0.06600
F3436       F  0.96821970  0.76622200  0.72932842    -0.19200
H3437       H  0.91118226  0.79116059  0.69627061     0.16500
F3438       F  0.96937703  0.88057479  0.64021235    -0.22900
H3439       H  0.52667453  0.85314018  0.66444767     0.18200
C3440       C  0.56964302  0.80048385  0.69318813     0.26200
C3441       C  0.60235010  0.79815027  0.71147109    -0.11500
C3442       C  0.60323558  0.79640464  0.74852556    -0.25500
C3443       C  0.57050894  0.79976372  0.76691683     0.37200
C3444       C  0.53781965  0.80278586  0.74850903    -0.27100
F3445       F  0.56975798  0.80039421  0.65739836    -0.19200
H3446       H  0.62679295  0.79579349  0.69629168     0.16400
F3447       F  0.56971398  0.79870255  0.80261853    -0.22900
H3448       H  0.51305842  0.80583818  0.76309796     0.18300
C3449       C  0.61907321  0.63995403  0.81387736    -0.27000
C3450       C  0.58166624  0.64265761  0.80757672     0.06600
C3451       C  0.56630921  0.67600705  0.80111380     0.26200
C3452       C  0.58794293  0.70615016  0.80209886    -0.11500
C3453       C  0.62550108  0.70360657  0.80835442    -0.25400
C3454       C  0.64092266  0.66996938  0.81365061     0.37000
C3455       C  0.55869087  0.61148250  0.81343199     0.06600
F3456       F  0.53040114  0.67949757  0.79390242    -0.19200
H3457       H  0.57515978  0.73128014  0.79671892     0.16500
F3458       F  0.67712681  0.66594835  0.81833852    -0.22900
H3459       H  0.63140779  0.61466775  0.82004812     0.18200
C3460       C  0.56976934  0.57756502  0.80254574     0.26200
C3461       C  0.55457146  0.54760704  0.81783506    -0.11500
C3462       C  0.52754787  0.55153802  0.84286603    -0.25500
C3463       C  0.51344900  0.58493334  0.85040750     0.37200
C3464       C  0.52914232  0.61482506  0.83597415    -0.27100
F3465       F  0.59689036  0.57356120  0.77916170    -0.19200
H3466       H  0.56511711  0.52157498  0.81179786     0.16400
F3467       F  0.98545761  0.59060705  0.87304397    -0.22900
H3468       H  0.52017093  0.64050077  0.84495335     0.18300
C3469       C  0.67187052  0.66697778  0.60716478    -0.27000
C3470       C  0.68859517  0.65047594  0.63628125     0.06600
C3471       C  0.71368852  0.62332997  0.63118342     0.26200
C3472       C  0.72632666  0.61713182  0.59763208    -0.11500
C3473       C  0.71214163  0.63595169  0.56893201    -0.25400
C3474       C  0.68376205  0.65976382  0.57339779     0.37000
C3475       C  0.68749650  0.66869971  0.67009186     0.06600
F3476       F  0.72936789  0.60639068  0.65899851    -0.19200
H3477       H  0.74952672  0.60026937  0.59446098     0.16500
F3478       F  0.67091625  0.67901038  0.54575322    -0.22900
H3479       H  0.65270683  0.68827794  0.61080352     0.18200
C3480       C  0.71982198  0.68251089  0.68482480     0.26200
C3481       C  0.71842821  0.70700182  0.71199782    -0.11500
C3482       C  0.68514165  0.71832787  0.72428737    -0.25500
C3483       C  0.65288488  0.70342227  0.71065041     0.37200
C3484       C  0.65416108  0.67867850  0.68368147    -0.27100
F3485       F  0.75254946  0.67444796  0.67122177    -0.19200
H3486       H  0.74339571  0.71789916  0.72239698     0.16400
F3487       F  0.62016474  0.71329963  0.72300956    -0.22900
H3488       H  0.62913520  0.66849673  0.67225609     0.18300
loop_ 
_geom_bond_atom_site_label_1 
_geom_bond_atom_site_label_2 
_geom_bond_distance 
_geom_bond_site_symmetry_2 
_ccdc_geom_bond_type 
N1            C5   1.361       .  A
N1            C2   1.353       .  A
N1          C421   1.417       .  S
C2            C3   1.385       .  A
C2          C141   1.508       .  S
C3            C4   1.390   1_554  A
C3            H6   1.080   1_554  S
C4            C5   1.385   1_556  A
C4          H443   1.081       .  S
C5           C95   1.501   1_554  S
H7          C440   1.081       .  S
N8            C9   1.352       .  A
N8         C1756   1.361   1_445  A
N8          C410   1.419       .  S
C9          C882   1.386   1_545  A
C9           C92   1.504       .  S
C10         C881   1.386       .  A
C10        C1755   1.391   1_455  A
C10          H13   1.082       .  S
C11        C1754   1.390       .  A
C11         C884   1.384       .  A
C11          H14   1.082       .  S
C12        N1752   1.357   1_565  A
C12         C883   1.385       .  A
C12         C196   1.493       .  S
N15          C19   1.373       .  A
N15          C16   1.358       .  A
N15         C381   1.436       .  S
C16          C17   1.381       .  A
C16         C185   1.496       .  S
C17          C18   1.382       .  A
C17          H20   1.082       .  S
C18          C19   1.385       .  A
C18          H21   1.082       .  S
C19         C144   1.501       .  S
C22          N23   1.355       .  A
C22          N27   1.357       .  A
C22         C390   1.480       .  S
N23          C24   1.355       .  A
C24          N25   1.350       .  A
C24         C401   1.472       .  S
N25          C26   1.348       .  A
C26          N27   1.355       .  A
C26         C430   1.450       .  S
Fe28         O44   2.171       .  S
Fe28         O34   2.024       .  S
Fe28         O41   2.046       .  S
Fe28         O33   2.184       .  S
Fe28         O39   1.948       .  S
Fe29         O32   2.153       .  S
Fe29         O36   2.048       .  S
Fe29         O40   2.168       .  S
Fe29         O45   2.051       .  S
Fe29         O39   1.948       .  S
Fe30         O48   2.043       .  S
Fe30         O35   2.171       .  S
Fe30         O42   2.172       .  S
Fe30         O31   2.046       .  S
Fe30         O39   1.952       .  S
O31          C38   1.267       .  A
O32          C46   1.288       .  A
O33          C38   1.293       .  A
O34          C37   1.263       .  A
O35          C47   1.290       .  A
O36          C49   1.266       .  A
C37         C110   1.506       .  S
C37          O42   1.291       .  A
C38          C65   1.517       .  S
O40          C43   1.289       .  A
O41          C43   1.271       .  A
C43         C163   1.513       .  S
O44          C49   1.293       .  A
O45          C47   1.272       .  A
C46         C159   1.501       .  S
C46          O48   1.267       .  A
C47         C114   1.510       .  S
C49          C61   1.511       .  S
N50          C54   1.372       .  A
N50          C51   1.365       .  A
N50        C1233   1.426   1_545  S
C51          C52   1.384       .  A
C51        C1938   1.520       .  S
C52          C53   1.388       .  A
C52          H55   1.082       .  S
C53          C54   1.385       .  A
C53          H56   1.082       .  S
C54          C86   1.515       .  S
N57          C61   1.372       .  A
N57          C58   1.360       .  A
N57         C350   1.426       .  S
C58          C59   1.382       .  A
C58          C96   1.515       .  S
C59          C60   1.388       .  A
C59          H62   1.079       .  S
C60          C61   1.386       .  A
C60          H63   1.082       .  S
N64          C68   1.366       .  A
N64          C65   1.356       .  A
N64         C321   1.419       .  S
C65          C66   1.387       .  A
C66          C67   1.393       .  A
C66          H69   1.082       .  S
C67          C68   1.385       .  A
C67          H70   1.082       .  S
C68         C184   1.508       .  S
C71          N76   1.351       .  A
C71         N508   1.360       .  A
C71        C2085   1.477       .  S
N72          C73   1.354       .  A
N72         C507   1.359       .  A
C73         N510   1.354       .  A
C73         C370   1.477       .  S
N74          C75   1.351       .  A
N74         C509   1.355       .  A
C75          N76   1.352       .  A
C75         C330   1.478       .  S
Fe77         O83   2.051   1_556  S
Fe77         O82   2.188   1_556  S
Fe77        O965   2.176       .  S
Fe77        O526   2.038       .  S
Fe77         O88   1.942       .  S
Fe78         O81   2.154       .  S
Fe78         O85   2.030       .  S
Fe78         O89   2.162       .  S
Fe78         O94   2.053       .  S
Fe78        O524   1.956       .  S
Fe79         O97   2.043       .  S
Fe79         O91   2.162       .  S
Fe79         O80   2.054       .  S
Fe79        O520   2.166   1_554  S
Fe79         O88   1.941   1_554  S
O80          C87   1.272       .  A
O81         C531   1.288       .  A
O82          C87   1.294       .  A
O83          C86   1.267       .  A
O84        Fe515   2.170       .  S
O84          C96   1.289       .  A
O85         C970   1.264   1_545  A
C86          O91   1.289       .  A
C87         C100   1.520       .  S
O88        Fe514   1.958       .  S
O89          C92   1.288       .  A
O90        Fe513   2.040       .  S
O90          C92   1.266       .  A
O93        Fe949   2.179       .  S
O93         C534   1.296       .  A
O94          C96   1.269       .  A
C95          O97   1.269   1_556  A
C95         O517   1.288       .  A
C98         C117   1.503       .  S
C98         O957   1.267       .  A
C98         O529   1.296       .  A
N99         C100   1.362   1_655  A
N99        C1847   1.374       .  A
N99        C2045   1.430       .  S
C100        C101   1.388       .  A
C101        C102   1.388       .  A
C101        H104   1.082       .  S
C102       C1847   1.381   1_455  A
C102        H105   1.082       .  S
C103       N1843   1.373       .  A
C103       C1846   1.381       .  A
C103        C135   1.506       .  S
N106        C110   1.377       .  A
N106        C107   1.368       .  A
N106        C281   1.435       .  S
C107        C108   1.390       .  A
C107        C145   1.527       .  S
C108        C109   1.385       .  A
C108        H111   1.082       .  S
C109        C110   1.378       .  A
C109        H112   1.082       .  S
N113        C117   1.371       .  A
N113        C114   1.359       .  A
N113        C270   1.431       .  S
C114        C115   1.386       .  A
C115        C116   1.387       .  A
C115        H118   1.082       .  S
C116        C117   1.380       .  A
C116        H119   1.082       .  S
C120        N121   1.359       .  A
C120        N125   1.356       .  A
C120        C290   1.469       .  S
N121        C122   1.354       .  A
C122        N123   1.357       .  A
C122        C261   1.461       .  S
N123        C124   1.353       .  A
C124        N125   1.358       .  A
C124        C310   1.468       .  S
Fe126       O142   2.164       .  S
Fe126       O132   2.024       .  S
Fe126       O139   2.048       .  S
Fe126       O131   2.171       .  S
Fe126       O137   1.945       .  S
Fe127       O130   2.148       .  S
Fe127       O134   2.050       .  S
Fe127       O138   2.168       .  S
Fe127       O143   2.055       .  S
Fe127       O137   1.941       .  S
Fe128       O146   2.050       .  S
Fe128       O133   2.193       .  S
Fe128       O140   2.180       .  S
Fe128       O129   2.044       .  S
Fe128       O137   1.949       .  S
O129        C136   1.268       .  A
O130        C144   1.289       .  A
O131        C136   1.290       .  A
O132        C135   1.263       .  A
O133        C145   1.294       .  A
O134        C147   1.266       .  A
C135        O140   1.294       .  A
C136        C149   1.510       .  S
O138        C141   1.289       .  A
O139        C141   1.268       .  A
O142        C147   1.292       .  A
O143        C145   1.272       .  A
C144        O146   1.266       .  A
C147        C602   1.508   1_554  S
N148        C152   1.361       .  A
N148        C149   1.352       .  A
N148        C241   1.416       .  S
C149        C150   1.388       .  A
C150        C151   1.393       .  A
C150        H153   1.082       .  S
C151        C152   1.384       .  A
C151        H154   1.082       .  S
C152        C193   1.500       .  S
N155        C159   1.365       .  A
N155        C156   1.355       .  A
N155        C221   1.421       .  S
C156        C157   1.386       .  A
C156        C190   1.512       .  S
C157        C158   1.390       .  A
C157       H1904   1.082       .  S
C158        C159   1.385       .  A
C158        H161   1.082       .  S
H160       C1901   1.082       .  S
N162        C166   1.371       .  A
N162        C163   1.358       .  A
N162        C201   1.429       .  S
C163        C164   1.384       .  A
C164        C165   1.388       .  A
C164        H167   1.082       .  S
C165        C166   1.385       .  A
C165        H168   1.082       .  S
C166        C583   1.506       .  S
C169        N170   1.359       .  A
C169        N174   1.352       .  A
C169        C230   1.473       .  S
N170        C171   1.360       .  A
C171        N172   1.354       .  A
C171        C210   1.476       .  S
N172       C1045   1.349       .  A
C173       N1044   1.350       .  A
C173       N1046   1.354       .  A
C173        C250   1.473       .  S
N174       C1045   1.351       .  A
Fe175       O191   2.131       .  S
Fe175       O181   2.043       .  S
Fe175       O188   2.046       .  S
Fe175       O180   2.153       .  S
Fe175       O186   1.942       .  S
Fe176       O179   2.148   1_565  S
Fe176       O183   2.054   1_565  S
Fe176       O192   2.078       .  S
Fe176      O2803   2.170       .  S
Fe176      O1058   1.944       .  S
Fe177       O189   2.161       .  S
Fe177       O178   2.043       .  S
Fe177      O1067   2.040       .  S
Fe177      O1054   2.179       .  S
Fe177       O186   1.941       .  S
O178        C185   1.273       .  A
O179        C193   1.286       .  A
O180        C185   1.289       .  A
O181        C184   1.261       .  A
O182      Fe1049   2.172   1_545  S
O182        C194   1.291       .  A
O183        C196   1.268   1_545  A
C184        O189   1.286       .  A
O186      Fe1048   1.946       .  S
O187      Fe2792   2.175       .  S
O187        C190   1.293       .  A
O188       C1934   1.270       .  A
C190       O1932   1.270   1_455  A
O191       C1068   1.281       .  A
O192        C194   1.277   1_565  A
C193        O195   1.268       .  A
C194       C1795   1.523       .  S
O195      Fe1049   2.045   1_545  S
C196       O1063   1.279       .  A
C197        C198   1.395       .  A
C197        C202   1.371       .  A
C197        H207   1.084       .  S
C198        C199   1.409       .  A
C198        C639   1.467       .  S
C199        C200   1.402       .  A
C199        F640   1.357       .  S
C200        C201   1.403       .  A
C200        H205   1.083       .  S
C201        C202   1.401       .  A
C202        F206   1.349       .  S
C203        C208   1.403       .  A
C203        C212   1.401       .  A
C203        C634   1.465       .  S
F204        C635   1.357       .  S
C208        C209   1.387       .  A
C208        F213   1.358   1_554  S
C209        C210   1.408       .  A
C209        H214   1.081   1_554  S
C210        C211   1.407       .  A
C211        C212   1.388       .  A
C211        F215   1.356       .  S
C212        H652   1.083       .  S
H216        C648   1.083       .  S
C217        C218   1.406       .  A
C217        C222   1.398       .  A
C217        H227   1.083       .  S
C218        C219   1.404       .  A
C218        C223   1.465       .  S
C219        C220   1.378       .  A
C219        F224   1.357       .  S
C220        C221   1.393       .  A
C220        H225   1.080       .  S
C221        C222   1.402       .  A
C222        F226   1.357       .  S
C223        C228   1.404       .  A
C223        C232   1.396       .  A
C228        C229   1.395       .  A
C228        F233   1.357       .  S
C229        C230   1.406       .  A
C229        H234   1.081       .  S
C230        C231   1.410       .  A
C231        C232   1.383       .  A
C231        F235   1.351       .  S
C232        H236   1.084       .  S
C237        C238   1.408       .  A
C237        C242   1.383       .  A
C237        H247   1.083       .  S
C238        C239   1.405       .  A
C238        C243   1.467       .  S
C239        C240   1.393       .  A
C239        F244   1.357       .  S
C240        C241   1.399       .  A
C240        H245   1.083       .  S
C241        C242   1.392       .  A
C242        F246   1.357       .  S
C243        C248   1.399       .  A
C243        C252   1.406       .  A
C248        C249   1.383       .  A
C248        F253   1.359       .  S
C249        C250   1.408       .  A
C249        H254   1.079       .  S
C250        C251   1.404       .  A
C251        C252   1.395       .  A
C251        F255   1.354       .  S
C252        H256   1.083       .  S
C257        C258   1.404       .  A
C257       C1134   1.399       .  A
C257        H267   1.084       .  S
C258       C1131   1.403       .  A
C258        C263   1.469       .  S
C259        C260   1.397       .  A
C259       C1130   1.402       .  A
C259        F264   1.358       .  S
C260        C261   1.405       .  A
C260        H265   1.084       .  S
C261        C262   1.398       .  A
C262       C1129   1.394       .  A
C262       F1138   1.352       .  S
C263        C268   1.403       .  A
C263        C272   1.403       .  A
F266       C1134   1.355       .  S
C268        C269   1.403       .  A
C268        F273   1.357       .  S
C269        C270   1.407       .  A
C269        H274   1.083       .  S
C270        C271   1.398       .  A
C271        C272   1.391       .  A
C271        F275   1.357       .  S
C272       H1148   1.084       .  S
H276       C1144   1.084       .  S
C277        C278   1.404       .  A
C277        C282   1.400       .  A
C277        H287   1.083       .  S
C278        C279   1.406       .  A
C278        C283   1.472       .  S
C279        C280   1.389       .  A
C279        F284   1.359       .  S
C280        C281   1.400       .  A
C280        H285   1.080       .  S
C281        C282   1.405       .  A
C282        F286   1.357       .  S
C283        C288   1.404       .  A
C283        C292   1.403       .  A
C288        C289   1.392       .  A
C288        F293   1.356       .  S
C289        C290   1.398       .  A
C289        H294   1.079       .  S
C290        C291   1.409       .  A
C291        C292   1.399       .  A
C291        F295   1.358       .  S
C292        H296   1.084       .  S
C297        C298   1.404       .  A
C297        C738   1.399       .  A
C297        H307   1.083       .  S
C298        C299   1.406       .  A
C298        C303   1.471       .  S
C299       C2044   1.391       .  A
C299       F2048   1.358       .  S
C300       C2043   1.388       .  A
C300       C2481   1.396       .  A
C300        H305   1.073       .  S
C301       N1843   1.429       .  S
C301        C302   1.404       .  A
C301       C2480   1.395       .  A
C302        C733   1.398       .  A
C302        F306   1.357       .  S
C303        C308   1.405       .  A
C303        C312   1.402       .  A
F304       C2043   1.359       .  S
C308        C309   1.392       .  A
C308        F313   1.356       .  S
C309        C310   1.396       .  A
C309        H314   1.079       .  S
C310        C311   1.410       .  A
C311        C312   1.399       .  A
C311        F315   1.358       .  S
C312        H316   1.084       .  S
C317        C318   1.403       .  A
C317        C322   1.389       .  A
C317        H327   1.083       .  S
C318        C319   1.407       .  A
C318        C323   1.464       .  S
C319        C320   1.386       .  A
C319        F324   1.358       .  S
C320        C321   1.397       .  A
C320        H325   1.084       .  S
C321        C322   1.399       .  A
C322        F326   1.357       .  S
C323        C328   1.406       .  A
C323        C332   1.397       .  A
C328        C329   1.388       .  A
C328        F333   1.358       .  S
C329        C330   1.406       .  A
C329        H334   1.081       .  S
C330        C331   1.414       .  A
C331        C332   1.389       .  A
C331        F335   1.352       .  S
C332        H336   1.083       .  S
C337        C338   1.400   1_655  A
C337        C342   1.394       .  A
C337        H347   1.083       .  S
C338        C339   1.404       .  A
C338        C343   1.469       .  S
C339        C340   1.385   1_455  A
C339        F344   1.358       .  S
C340        C341   1.401       .  A
C340        H781   1.077   1_655  S
C341        C342   1.413       .  A
C341       C1815   1.479       .  S
C342       F2090   1.357       .  S
C343        C348   1.401       .  A
C343        C352   1.405       .  A
H345        C776   1.079       .  S
F346       C2086   1.356       .  S
C348        C349   1.389       .  A
C348        F353   1.357       .  S
C349        C350   1.404       .  A
C349        H354   1.080       .  S
C350        C351   1.399       .  A
C351        C352   1.390       .  A
C351        F355   1.357       .  S
C352        H356   1.083       .  S
C357        C358   1.403       .  A
C357       C1234   1.392       .  A
C357        H367   1.084   1_455  S
C358        C359   1.403       .  A
C358       C2107   1.460   1_455  S
C359        C360   1.384       .  A
C359        F364   1.358       .  S
C360        C361   1.397       .  A
C360        H365   1.080       .  S
C361        N922   1.422       .  S
C361       C1234   1.401       .  A
C362       C1229   1.392       .  A
C362       C1233   1.402       .  A
C362        F366   1.356   1_565  S
C363        C368   1.405       .  A
C363       C2116   1.399       .  A
C363       C2102   1.463       .  S
C368        C369   1.386       .  A
C368        F373   1.359       .  S
C369        C370   1.404       .  A
C369        H374   1.082       .  S
C370       C2115   1.414       .  A
C371        C372   1.389   1_655  A
C371       C2114   1.413       .  A
C371        F375   1.353   1_655  S
C372       C2107   1.396   1_455  A
C372        H376   1.084       .  S
C377        C378   1.393       .  A
C377        C382   1.381       .  A
C377       H2131   1.083       .  S
C378        C379   1.409       .  A
C378       C2127   1.468       .  S
C379        C380   1.401       .  A
C379        F384   1.357       .  S
C380        C381   1.403       .  A
C380        H385   1.082       .  S
C381        C382   1.406       .  A
C382        F386   1.349       .  S
C383        C388   1.405       .  A
C383        C392   1.401       .  A
C383       C2122   1.469       .  S
H387       C2121   1.083       .  S
C388        C389   1.389       .  A
C388        F393   1.358       .  S
C389        C390   1.407       .  A
C389        H394   1.083       .  S
C390        C391   1.412       .  A
C391        C392   1.393       .  A
C391        F395   1.357       .  S
C392        H396   1.083       .  S
C397        C398   1.404       .  A
C397        C402   1.391       .  A
C397        H407   1.083       .  S
C398        C399   1.400       .  A
C398        C403   1.465       .  S
C399        C400   1.384       .  A
C399        F404   1.359       .  S
C400        C401   1.408       .  A
C400        H405   1.077       .  S
C401        C402   1.406       .  A
C402        F406   1.357       .  S
C403        C408   1.407       .  A
C403        C412   1.403       .  A
C408        C409   1.394       .  A
C408        F413   1.358       .  S
C409        C410   1.399       .  A
C409        H414   1.083       .  S
C410        C411   1.396       .  A
C411        C412   1.382       .  A
C411       F2159   1.357   1_455  S
C412        H416   1.082       .  S
F415       C2155   1.356       .  S
C417        C418   1.404       .  A
C417        C422   1.387       .  A
C417        H427   1.083       .  S
C418        C419   1.400       .  A
C418        C423   1.456       .  S
C419        C420   1.383       .  A
C419        F424   1.358       .  S
C420        C421   1.398       .  A
C420        H425   1.078       .  S
C421        C422   1.396       .  A
C422        F426   1.357       .  S
C423        C428   1.409       .  A
C423        C432   1.396       .  A
C428        C429   1.387       .  A
C428        F433   1.358       .  S
C429        C430   1.391       .  A
C429        H434   1.075       .  S
C430        C431   1.407       .  A
C431        C432   1.386       .  A
C431        F435   1.357       .  S
C432        H436   1.084       .  S
N437        C441   1.362       .  A
N437        C438   1.351       .  A
N437        C857   1.419       .  S
C438        C439   1.385       .  A
C438        C577   1.504       .  S
C439        C440   1.390       .  A
C439        H442   1.082       .  S
C440        C441   1.385       .  A
C441        C531   1.499       .  S
N444       C2192   1.360   1_445  A
N444        C445   1.351       .  A
N444        C846   1.420       .  S
C445       C1318   1.385   1_545  A
C445        C528   1.499       .  S
C446       C1317   1.387       .  A
C446       C2191   1.391   1_455  A
C446        H449   1.082       .  S
C447       C2190   1.389       .  A
C447       C1320   1.384       .  A
C447        H450   1.082       .  S
C448       N2188   1.361   1_565  A
C448       C1319   1.384       .  A
C448        C632   1.492       .  S
N451        C455   1.368       .  A
N451        C452   1.356       .  A
N451        C817   1.428       .  S
C452        C453   1.382       .  A
C452        C621   1.501       .  S
C453        C454   1.385       .  A
C453        H456   1.082       .  S
C454        C455   1.385       .  A
C454        H457   1.082       .  S
C455        C580   1.499       .  S
C458        N459   1.354       .  A
C458        N463   1.356       .  A
C458        C826   1.476       .  S
N459        C460   1.354       .  A
C460        N461   1.350       .  A
C460        C837   1.471       .  S
N461        C462   1.347       .  A
C462        N463   1.353       .  A
C462        C866   1.449       .  S
Fe464       O480   2.157       .  S
Fe464       O470   2.018       .  S
Fe464       O477   2.035       .  S
Fe464       O469   2.173       .  S
Fe464       O475   1.950       .  S
Fe465       O468   2.152       .  S
Fe465       O472   2.042       .  S
Fe465       O476   2.160       .  S
Fe465       O481   2.045       .  S
Fe465       O475   1.950       .  S
Fe466       O484   2.050       .  S
Fe466       O471   2.168       .  S
Fe466       O478   2.176       .  S
Fe466       O467   2.057       .  S
Fe466       O475   1.952       .  S
O467        C474   1.268       .  A
O468        C482   1.288       .  A
O469        C474   1.290       .  A
O470        C473   1.262       .  A
O471        C483   1.290       .  A
O472        C485   1.267       .  A
C473        C546   1.502       .  S
C473        O478   1.293       .  A
C474        C501   1.514       .  S
O476        C479   1.288       .  A
O477        C479   1.270       .  A
C479        C599   1.507       .  S
O480        C485   1.290       .  A
O481        C483   1.269       .  A
C482        C595   1.504       .  S
C482        O484   1.270       .  A
C483        C550   1.509       .  S
C485        C497   1.503       .  S
N486        C490   1.373       .  A
N486        C487   1.363       .  A
N486       C1669   1.425   1_545  S
C487        C488   1.384       .  A
C487       C2374   1.520       .  S
C488        C489   1.388       .  A
C488        H491   1.081       .  S
C489        C490   1.386       .  A
C489        H492   1.082       .  S
C490        C522   1.516       .  S
N493        C497   1.368       .  A
N493        C494   1.357       .  A
N493        C786   1.425       .  S
C494        C495   1.382       .  A
C494        C532   1.510       .  S
C495        C496   1.386       .  A
C495        H498   1.080       .  S
C496        C497   1.385       .  A
C496        H499   1.081       .  S
N500        C504   1.368       .  A
N500        C501   1.360       .  A
N500        C757   1.425       .  S
C501        C502   1.386       .  A
C502        C503   1.387       .  A
C502        H505   1.081       .  S
C503        C504   1.383       .  A
C503        H506   1.082       .  S
C504        C620   1.504       .  S
C507        N512   1.353   1_554  A
C507       C2521   1.478   1_554  S
N508        C509   1.356       .  A
C509        C806   1.481       .  S
N510        C511   1.349       .  A
C511        N512   1.354   1_554  A
C511        C766   1.479   1_554  S
Fe513      O1401   2.187       .  S
Fe513       O519   2.054       .  S
Fe513       O518   2.193       .  S
Fe513       O524   1.944       .  S
Fe514       O517   2.152       .  S
Fe514       O521   2.030       .  S
Fe514       O525   2.154       .  S
Fe514       O530   2.046       .  S
Fe515       O533   2.039       .  S
Fe515       O527   2.164       .  S
Fe515       O516   2.051       .  S
Fe515       O524   1.938       .  S
O516        C523   1.272       .  A
O518        C523   1.295       .  A
O519        C522   1.268       .  A
O520        C532   1.288       .  A
O521       C1406   1.265   1_545  A
C522        O527   1.290       .  A
C523        C536   1.521       .  S
O525        C528   1.286       .  A
O526        C528   1.266       .  A
O529      Fe1385   2.176       .  S
O530        C532   1.268       .  A
C531        O533   1.268       .  A
C534        C553   1.504       .  S
C534       O1393   1.265       .  A
N535       C2283   1.374       .  A
N535        C536   1.362   1_655  A
N535       C2481   1.430       .  S
C536        C537   1.389       .  A
C537        C538   1.388       .  A
C537        H540   1.082       .  S
C538       C2283   1.380   1_455  A
C538        H541   1.082       .  S
C539       N2279   1.375       .  A
C539       C2282   1.380       .  A
C539        C571   1.504       .  S
N542        C546   1.375       .  A
N542        C543   1.365       .  A
N542        C717   1.434       .  S
C543        C544   1.389       .  A
C543        C581   1.521       .  S
C544        C545   1.385       .  A
C544        H547   1.082       .  S
C545        C546   1.379       .  A
C545        H548   1.082       .  S
N549        C553   1.373       .  A
N549        C550   1.358       .  A
N549        C706   1.432       .  S
C550        C551   1.387       .  A
C551        C552   1.387       .  A
C551        H554   1.082       .  S
C552        C553   1.381       .  A
C552        H555   1.082       .  S
C556        N557   1.360       .  A
C556        N561   1.356       .  A
C556        C726   1.469       .  S
N557        C558   1.355       .  A
C558        N559   1.356       .  A
C558        C697   1.463       .  S
N559        C560   1.353       .  A
C560        N561   1.358       .  A
C560        C746   1.465       .  S
Fe562       O578   2.167       .  S
Fe562       O568   2.018       .  S
Fe562       O575   2.039       .  S
Fe562       O567   2.162       .  S
Fe562       O573   1.940       .  S
Fe563       O566   2.148       .  S
Fe563       O570   2.042       .  S
Fe563       O574   2.166       .  S
Fe563       O579   2.049       .  S
Fe563       O573   1.938       .  S
Fe564       O582   2.049       .  S
Fe564       O569   2.185       .  S
Fe564       O576   2.180       .  S
Fe564       O565   2.044       .  S
Fe564       O573   1.948       .  S
O565        C572   1.267       .  A
O566        C580   1.289       .  A
O567        C572   1.288       .  A
O568        C571   1.261       .  A
O569        C581   1.292       .  A
O570        C583   1.266       .  A
C571        O576   1.293       .  A
C572        C585   1.501       .  S
O574        C577   1.288       .  A
O575        C577   1.264       .  A
O578        C583   1.293       .  A
O579        C581   1.270       .  A
C580        O582   1.268       .  A
N584        C588   1.361       .  A
N584        C585   1.351       .  A
N584        C677   1.420       .  S
C585        C586   1.386       .  A
C586        C587   1.389       .  A
C586        H589   1.082       .  S
C587        C588   1.384       .  A
C587        H590   1.082       .  S
C588        C629   1.492       .  S
N591        C595   1.363       .  A
N591        C592   1.354       .  A
N591        C657   1.417       .  S
C592        C593   1.385       .  A
C592        C626   1.510       .  S
C593        C594   1.391       .  A
C593       H2340   1.082       .  S
C594        C595   1.386       .  A
C594        H597   1.082       .  S
H596       C2337   1.082       .  S
N598        C602   1.373       .  A
N598        C599   1.359       .  A
N598        C637   1.432       .  S
C599        C600   1.381       .  A
C600        C601   1.385       .  A
C600        H603   1.081       .  S
C601        C602   1.386       .  A
C601        H604   1.081       .  S
C605        N606   1.359       .  A
C605        N610   1.353       .  A
C605        C666   1.469       .  S
N606        C607   1.358       .  A
C607        N608   1.355       .  A
C607        C646   1.479       .  S
N608       C1481   1.350       .  A
C609       N1480   1.350       .  A
C609       N1482   1.349       .  A
C609        C686   1.478       .  S
N610       C1481   1.353       .  A
Fe611       O627   2.123       .  S
Fe611       O617   2.037       .  S
Fe611       O624   2.048       .  S
Fe611       O616   2.164       .  S
Fe611       O622   1.944       .  S
Fe612       O615   2.141   1_565  S
Fe612       O619   2.045   1_565  S
Fe612      O3239   2.175       .  S
Fe612       O628   2.074       .  S
Fe612      O1494   1.944       .  S
Fe613      O1503   2.043       .  S
Fe613      O1490   2.173       .  S
Fe613       O625   2.160       .  S
Fe613       O614   2.042       .  S
Fe613       O622   1.946       .  S
O614        C621   1.272       .  A
O615        C629   1.285       .  A
O616        C621   1.291       .  A
O617        C620   1.256       .  A
O618      Fe1485   2.167   1_545  S
O618        C630   1.290       .  A
O619        C632   1.265   1_545  A
C620        O625   1.285       .  A
O622      Fe1484   1.942       .  S
O623      Fe3228   2.165       .  S
O623        C626   1.291       .  A
O624       C2370   1.272       .  A
C626       O2368   1.273   1_455  A
O627       C1504   1.280       .  A
O628        C630   1.277   1_565  A
C629        O631   1.266       .  A
C630       C2231   1.519       .  S
O631      Fe1485   2.040   1_545  S
C632       O1499   1.282       .  A
C633        C634   1.392   1_556  A
C633        C638   1.376       .  A
C633        H643   1.083       .  S
C634        C635   1.409       .  A
C635        C636   1.397       .  A
C636        C637   1.400   1_554  A
C636        H641   1.082       .  S
C637        C638   1.406       .  A
C638        F642   1.349       .  S
C639        C644   1.402       .  A
C639        C648   1.402       .  A
C644        C645   1.381       .  A
C644        F649   1.359       .  S
C645        C646   1.407       .  A
C645        H650   1.080       .  S
C646        C647   1.409       .  A
C647        C648   1.395       .  A
C647        F651   1.356       .  S
C653        C654   1.405       .  A
C653        C658   1.396       .  A
C653        H663   1.083       .  S
C654        C655   1.407       .  A
C654        C659   1.465       .  S
C655        C656   1.378       .  A
C655        F660   1.358       .  S
C656        C657   1.391       .  A
C656        H661   1.080       .  S
C657        C658   1.402       .  A
C658        F662   1.357       .  S
C659        C664   1.406       .  A
C659        C668   1.394       .  A
C664        C665   1.396       .  A
C664        F669   1.357       .  S
C665        C666   1.404       .  A
C665        H670   1.081       .  S
C666        C667   1.409       .  A
C667        C668   1.379       .  A
C667        F671   1.350       .  S
C668        H672   1.084       .  S
C673        C674   1.408       .  A
C673        C678   1.386       .  A
C673        H683   1.082       .  S
C674        C675   1.407       .  A
C674        C679   1.472       .  S
C675        C676   1.393       .  A
C675        F680   1.357       .  S
C676        C677   1.398       .  A
C676        H681   1.083       .  S
C677        C678   1.395       .  A
C678        F682   1.357       .  S
C679        C684   1.401       .  A
C679        C688   1.407       .  A
C684        C685   1.385       .  A
C684        F689   1.359       .  S
C685        C686   1.410       .  A
C685        H690   1.078       .  S
C686        C687   1.406       .  A
C687        C688   1.394       .  A
C687        F691   1.355       .  S
C688        H692   1.083       .  S
C693        C694   1.403       .  A
C693       C1570   1.395       .  A
C693        H703   1.084       .  S
C694       C1567   1.403       .  A
C694        C699   1.468       .  S
C695       C1566   1.402       .  A
C695        C696   1.396       .  A
C695        F700   1.358       .  S
C696        C697   1.404       .  A
C696        H701   1.084       .  S
C697        C698   1.399       .  A
C698       C1565   1.398       .  A
C698       F1574   1.354       .  S
C699        C704   1.401       .  A
C699        C708   1.402       .  A
F702       C1570   1.351       .  S
C704        C705   1.400       .  A
C704        F709   1.357       .  S
C705        C706   1.405       .  A
C705        H710   1.083       .  S
C706        C707   1.402       .  A
C707        C708   1.390       .  A
C707        F711   1.355       .  S
C708       H1584   1.084       .  S
H712       C1580   1.084       .  S
C713        C714   1.403       .  A
C713        C718   1.402       .  A
C713        H723   1.083       .  S
C714        C715   1.406       .  A
C714        C719   1.472       .  S
C715        C716   1.389       .  A
C715        F720   1.358       .  S
C716        C717   1.398       .  A
C716        H721   1.080       .  S
C717        C718   1.406       .  A
C718        F722   1.357       .  S
C719        C724   1.402       .  A
C719        C728   1.404       .  A
C724        C725   1.393       .  A
C724        F729   1.356       .  S
C725        C726   1.398       .  A
C725        H730   1.074       .  S
C726        C727   1.408       .  A
C727        C728   1.399       .  A
C727        F731   1.358       .  S
C728        H732   1.083       .  S
C733        C734   1.403   1_554  A
C733        H743   1.083       .  S
C734        C735   1.408       .  A
C734        C739   1.471       .  S
C735       C2480   1.390   1_556  A
C735       F2484   1.358       .  S
C736       C2479   1.391   1_554  A
C736       C2045   1.396       .  A
C736        H741   1.075   1_554  S
C737       N2279   1.432       .  S
C737       C2044   1.398       .  A
C737        C738   1.404       .  A
C738        F742   1.357       .  S
C739        C744   1.405       .  A
C739        C748   1.402       .  A
F740       C2479   1.358       .  S
C744        C745   1.395       .  A
C744        F749   1.357       .  S
C745        C746   1.396       .  A
C745        H750   1.077       .  S
C746        C747   1.408       .  A
C747        C748   1.395       .  A
C747        F751   1.357       .  S
C748        H752   1.084       .  S
C753        C754   1.405       .  A
C753        C758   1.390       .  A
C753        H763   1.084       .  S
C754        C755   1.409       .  A
C754        C759   1.475       .  S
C755        C756   1.391       .  A
C755        F760   1.357       .  S
C756        C757   1.398       .  A
C756        H761   1.083       .  S
C757        C758   1.401       .  A
C758        F762   1.357       .  S
C759        C764   1.409       .  A
C759        C768   1.402       .  A
C764        C765   1.385       .  A
C764        F769   1.358       .  S
C765        C766   1.403       .  A
C765        H770   1.079       .  S
C766        C767   1.414       .  A
C767        C768   1.395       .  A
C767        F771   1.355   1_556  S
C768        H772   1.083       .  S
C773        C774   1.399   1_655  A
C773        C778   1.391       .  A
C773        H783   1.083       .  S
C774        C775   1.402       .  A
C774        C779   1.464       .  S
C775        C776   1.387   1_456  A
C775        F780   1.358   1_556  S
C776        C777   1.403   1_554  A
C777        C778   1.413       .  A
C777       C2251   1.477   1_556  S
C778       F2526   1.356       .  S
C779        C784   1.397       .  A
C779        C788   1.406       .  A
F782       C2522   1.355       .  S
C784        C785   1.384       .  A
C784        F789   1.356       .  S
C785        C786   1.401       .  A
C785        H790   1.079       .  S
C786        C787   1.400       .  A
C787        C788   1.394       .  A
C787        F791   1.356       .  S
C788        H792   1.084       .  S
C793        C794   1.406       .  A
C793       C1670   1.395       .  A
C793        H803   1.084   1_455  S
C794        C795   1.406       .  A
C794       C2543   1.473   1_455  S
C795        C796   1.386       .  A
C795        F800   1.357       .  S
C796        C797   1.398       .  A
C796        H801   1.082       .  S
C797       N1358   1.427       .  S
C797       C1670   1.402       .  A
C798       C1665   1.392       .  A
C798       C1669   1.401       .  A
C798        F802   1.356   1_565  S
C799        C804   1.405       .  A
C799       C2552   1.402       .  A
C799       C2538   1.472       .  S
C804        C805   1.389       .  A
C804        F809   1.358       .  S
C805        C806   1.404       .  A
C805        H810   1.082       .  S
C806       C2551   1.412       .  A
C807       C2550   1.410       .  A
C807        C808   1.392   1_655  A
C807        F811   1.355   1_655  S
C808       C2543   1.403   1_455  A
C808        H812   1.083       .  S
C813        C814   1.394       .  A
C813        C818   1.376       .  A
C813       H2567   1.084       .  S
C814        C815   1.407       .  A
C814       C2563   1.461       .  S
C815        C816   1.399       .  A
C815        F820   1.357       .  S
C816        C817   1.402       .  A
C816        H821   1.081       .  S
C817        C818   1.402       .  A
C818        F822   1.349       .  S
C819        C824   1.401       .  A
C819        C828   1.399       .  A
C819       C2558   1.461       .  S
H823       C2557   1.084       .  S
C824        C825   1.385       .  A
C824        F829   1.358       .  S
C825        C826   1.408       .  A
C825        H830   1.083       .  S
C826        C827   1.412       .  A
C827        C828   1.392       .  A
C827        F831   1.355       .  S
C828        H832   1.083       .  S
C833        C834   1.405       .  A
C833        C838   1.390       .  A
C833        H843   1.083       .  S
C834        C835   1.402       .  A
C834        C839   1.468       .  S
C835        C836   1.386       .  A
C835        F840   1.358       .  S
C836        C837   1.407       .  A
C836        H841   1.078       .  S
C837        C838   1.406       .  A
C838        F842   1.357       .  S
C839        C844   1.408       .  A
C839        C848   1.403       .  A
C844        C845   1.393       .  A
C844        F849   1.358       .  S
C845        C846   1.399       .  A
C845        H850   1.083       .  S
C846        C847   1.396       .  A
C847        C848   1.383       .  A
C847       F2595   1.357   1_455  S
C848        H852   1.080       .  S
F851       C2591   1.357       .  S
C853        C854   1.404       .  A
C853        C858   1.390       .  A
C853        H863   1.083       .  S
C854        C855   1.399       .  A
C854        C859   1.456       .  S
C855        C856   1.383       .  A
C855        F860   1.359       .  S
C856        C857   1.397       .  A
C856        H861   1.076       .  S
C857        C858   1.397       .  A
C858        F862   1.357       .  S
C859        C864   1.410       .  A
C859        C868   1.396       .  A
C864        C865   1.384       .  A
C864        F869   1.358       .  S
C865        C866   1.389       .  A
C865        H870   1.077       .  S
C866        C867   1.409       .  A
C867        C868   1.387       .  A
C867        F871   1.357       .  S
C868        H872   1.084       .  S
N873        C877   1.365       .  A
N873        C874   1.354       .  A
N873       C1293   1.419       .  S
C874        C875   1.386       .  A
C874       C1013   1.511       .  S
C875        C876   1.391   1_554  A
C875        H878   1.082   1_554  S
C876        C877   1.385   1_556  A
C876       H1315   1.081       .  S
C877        C967   1.504   1_554  S
H879       C1312   1.081       .  S
N880       C2628   1.362   1_455  A
N880        C881   1.353       .  A
N880       C1282   1.419       .  S
C881        C964   1.505       .  S
C882       C2627   1.389   1_455  A
C882        H885   1.082       .  S
C883       C2626   1.392       .  A
C883        H886   1.082       .  S
C884       N2624   1.359       .  A
C884       C1068   1.492       .  S
N887        C891   1.372       .  A
N887        C888   1.360       .  A
N887       C1253   1.433       .  S
C888        C889   1.381       .  A
C888       C1057   1.504       .  S
C889        C890   1.383       .  A
C889        H892   1.082       .  S
C890        C891   1.385       .  A
C890        H893   1.082       .  S
C891       C1016   1.503       .  S
C894        N895   1.355       .  A
C894        N899   1.356       .  A
C894       C1262   1.478       .  S
N895        C896   1.355       .  A
C896        N897   1.350       .  A
C896       C1273   1.471       .  S
N897        C898   1.348       .  A
C898        N899   1.354       .  A
C898       C1302   1.450       .  S
Fe900       O916   2.155       .  S
Fe900       O906   2.017       .  S
Fe900       O913   2.036       .  S
Fe900       O905   2.168       .  S
Fe900       O911   1.951       .  S
Fe901       O904   2.150       .  S
Fe901       O908   2.042       .  S
Fe901       O912   2.165       .  S
Fe901       O917   2.053       .  S
Fe901       O911   1.945       .  S
Fe902       O920   2.048       .  S
Fe902       O907   2.184       .  S
Fe902       O914   2.186       .  S
Fe902       O903   2.049       .  S
Fe902       O911   1.948       .  S
O903        C910   1.267       .  A
O904        C918   1.288       .  A
O905        C910   1.289       .  A
O906        C909   1.262       .  A
O907        C919   1.293       .  A
O908        C921   1.265       .  A
C909        C982   1.508       .  S
C909        O914   1.295       .  A
C910        C937   1.508       .  S
O912        C915   1.289       .  A
O913        C915   1.269       .  A
C915       C1035   1.509       .  S
O916        C921   1.290       .  A
O917        C919   1.271       .  A
C918       C1031   1.502       .  S
C918        O920   1.269       .  A
C919        C986   1.519       .  S
C921        C933   1.500       .  S
N922        C926   1.371       .  A
N922        C923   1.363       .  A
C923        C924   1.385       .  A
C923       C2810   1.522       .  S
C924        C925   1.390       .  A
C924        H927   1.082       .  S
C925        C926   1.386       .  A
C925        H928   1.082       .  S
C926        C958   1.517       .  S
N929        C933   1.369       .  A
N929        C930   1.358       .  A
N929       C1222   1.427       .  S
C930        C931   1.381       .  A
C930        C968   1.507       .  S
C931        C932   1.384       .  A
C931        H934   1.078       .  S
C932        C933   1.384       .  A
C932        H935   1.082       .  S
N936        C940   1.366       .  A
N936        C937   1.356       .  A
N936       C1193   1.424       .  S
C937        C938   1.385       .  A
C938        C939   1.388       .  A
C938        H941   1.081       .  S
C939        C940   1.384       .  A
C939        H942   1.081       .  S
C940       C1056   1.501       .  S
C943       N1380   1.360       .  A
C943        N948   1.352       .  A
C943       C2957   1.476       .  S
N944       C1379   1.358       .  A
N944        C945   1.356       .  A
C945       N1382   1.355       .  A
C945       C1242   1.478       .  S
N946       C1381   1.353       .  A
N946        C947   1.348       .  A
C947        N948   1.352       .  A
C947       C1202   1.477       .  S
Fe949       O955   2.057   1_556  S
Fe949      O1398   2.044       .  S
Fe949       O954   2.187   1_556  S
Fe949       O960   1.944       .  S
Fe950       O953   2.157       .  S
Fe950       O957   2.033       .  S
Fe950       O961   2.156       .  S
Fe950       O966   2.052       .  S
Fe950      O1396   1.959       .  S
Fe951       O969   2.037       .  S
Fe951      O1392   2.163   1_554  S
Fe951       O963   2.164       .  S
Fe951       O952   2.043       .  S
Fe951       O960   1.940   1_554  S
O952        C959   1.269       .  A
O953       C1403   1.287       .  A
O954        C959   1.294       .  A
O955        C958   1.268       .  A
O956      Fe1387   2.162       .  S
O956        C968   1.287       .  A
C958        O963   1.289       .  A
C959        C972   1.513       .  S
O960      Fe1386   1.954       .  S
O961        C964   1.286       .  A
O962      Fe1385   2.046       .  S
O962        C964   1.267       .  A
O965       C1406   1.296   1_545  A
O966        C968   1.269       .  A
C967       O1389   1.290       .  A
C967        O969   1.268   1_556  A
C970        C989   1.509       .  S
C970       O1401   1.297   1_565  A
N971       C2719   1.369       .  A
N971        C972   1.358   1_655  A
N971       C2917   1.428       .  S
C972        C973   1.389       .  A
C973        C974   1.388       .  A
C973        H976   1.082       .  S
C974       C2719   1.381   1_455  A
C974        H977   1.082       .  S
C975       N2715   1.372       .  A
C975       C2718   1.381       .  A
C975       C1007   1.500       .  S
N978        C982   1.377       .  A
N978        C979   1.369       .  A
N978       C1153   1.436       .  S
C979        C980   1.389       .  A
C979       C1017   1.526       .  S
C980        C981   1.386       .  A
C980        H983   1.082       .  S
C981        C982   1.379       .  A
C981        H984   1.082       .  S
N985        C989   1.374       .  A
N985        C986   1.362       .  A
N985       C1142   1.431       .  S
C986        C987   1.387       .  A
C987        C988   1.388       .  A
C987        H990   1.082       .  S
C988        C989   1.380       .  A
C988        H991   1.082       .  S
C992        N993   1.361       .  A
C992        N997   1.356       .  A
C992       C1162   1.469       .  S
N993        C994   1.355       .  A
C994        N995   1.356       .  A
C994       C1133   1.465       .  S
N995        C996   1.354       .  A
C996        N997   1.357       .  A
C996       C1182   1.466       .  S
Fe998      O1014   2.156       .  S
Fe998      O1004   2.021       .  S
Fe998      O1011   2.046       .  S
Fe998      O1003   2.167       .  S
Fe998      O1009   1.949       .  S
Fe999      O1002   2.155       .  S
Fe999      O1006   2.050       .  S
Fe999      O1010   2.173       .  S
Fe999      O1015   2.058       .  S
Fe999      O1009   1.935       .  S
Fe1000     O1018   2.047       .  S
Fe1000     O1005   2.182       .  S
Fe1000     O1012   2.176       .  S
Fe1000     O1001   2.041       .  S
Fe1000     O1009   1.954       .  S
O1001      C1008   1.265       .  A
O1002      C1016   1.292       .  A
O1003      C1008   1.289       .  A
O1004      C1007   1.262       .  A
O1005      C1017   1.291       .  A
O1006      C1019   1.268       .  A
C1007      O1012   1.292       .  A
C1008      C1021   1.503       .  S
O1010      C1013   1.291       .  A
O1011      C1013   1.268       .  A
O1014      C1019   1.289       .  A
O1015      C1017   1.273       .  A
C1016      O1018   1.267       .  A
C1019      C1474   1.506   1_554  S
N1020      C1024   1.360       .  A
N1020      C1021   1.351       .  A
N1020      C1113   1.418       .  S
C1021      C1022   1.386       .  A
C1022      C1023   1.390       .  A
C1022      H1025   1.082       .  S
C1023      C1024   1.384       .  A
C1023      H1026   1.082       .  S
C1024      C1065   1.494       .  S
N1027      C1031   1.362       .  A
N1027      C1028   1.353       .  A
N1027      C1093   1.416       .  S
C1028      C1029   1.386       .  A
C1028      C1062   1.511       .  S
C1029      C1030   1.391       .  A
C1029      H2776   1.082       .  S
C1030      C1031   1.385       .  A
C1030      H1033   1.082       .  S
H1032      C2773   1.082       .  S
N1034      C1038   1.369       .  A
N1034      C1035   1.356       .  A
N1034      C1073   1.428       .  S
C1035      C1036   1.384       .  A
C1036      C1037   1.388       .  A
C1036      H1039   1.082       .  S
C1037      C1038   1.386       .  A
C1037      H1040   1.082       .  S
C1038      C1455   1.504       .  S
C1041      N1042   1.359   1_545  A
C1041      N1046   1.353       .  A
C1041      C1102   1.466   1_545  S
N1042      C1043   1.356       .  A
C1043      N1044   1.355   1_565  A
C1043      C1082   1.478       .  S
C1045      C1122   1.474       .  S
Fe1047     O1063   2.123       .  S
Fe1047     O1053   2.037       .  S
Fe1047     O1060   2.044       .  S
Fe1047     O1052   2.157       .  S
Fe1047     O1058   1.949       .  S
Fe1048     O1051   2.143       .  S
Fe1048     O1055   2.045       .  S
Fe1048     O1931   2.178       .  S
Fe1048     O1064   2.078       .  S
Fe1049     O1061   2.155       .  S
Fe1049     O1050   2.051       .  S
Fe1049     O1058   1.950       .  S
O1050      C1057   1.274       .  A
O1051      C1065   1.283       .  A
O1052      C1057   1.288       .  A
O1053      C1056   1.258       .  A
O1054      C1066   1.293       .  A
O1055      C1068   1.266       .  A
C1056      O1061   1.285       .  A
O1059     Fe1920   2.171       .  S
O1059      C1062   1.293       .  A
O1060      C2806   1.271       .  A
C1062      O2804   1.270   1_455  A
O1064      C1066   1.279       .  A
C1065      O1067   1.264       .  A
C1066      C2667   1.524       .  S
C1069      C1070   1.396       .  A
C1069      C1074   1.373       .  A
C1069      H1079   1.083       .  S
C1070      C1071   1.410       .  A
C1070      C1511   1.469       .  S
C1071      C1072   1.398       .  A
C1071      F1512   1.357       .  S
C1072      C1073   1.401       .  A
C1072      H1077   1.083       .  S
C1073      C1074   1.401       .  A
C1074      F1078   1.350       .  S
C1075      C1080   1.401       .  A
C1075      C1084   1.401       .  A
C1075      C1506   1.463       .  S
F1076      C1507   1.357       .  S
C1080      C1081   1.380       .  A
C1080      F1085   1.359       .  S
C1081      C1082   1.407       .  A
C1081      H1086   1.079       .  S
C1082      C1083   1.410       .  A
C1083      C1084   1.394       .  A
C1083      F1087   1.356       .  S
C1084      H1524   1.083       .  S
H1088      C1520   1.083       .  S
C1089      C1090   1.402       .  A
C1089      C1094   1.395       .  A
C1089      H1099   1.083       .  S
C1090      C1091   1.404       .  A
C1090      C1095   1.458       .  S
C1091      C1092   1.376       .  A
C1091      F1096   1.358       .  S
C1092      C1093   1.392       .  A
C1092      H1097   1.079       .  S
C1093      C1094   1.402       .  A
C1094      F1098   1.357       .  S
C1095      C1100   1.405       .  A
C1095      C1104   1.392       .  A
C1100      C1101   1.397   1_565  A
C1100      F1105   1.357   1_565  S
C1101      C1102   1.404   1_545  A
C1101      H1106   1.081       .  S
C1102      C1103   1.409       .  A
C1103      C1104   1.377       .  A
C1103      F1107   1.349       .  S
C1104      H1108   1.084       .  S
C1109      C1110   1.407       .  A
C1109      C1114   1.386       .  A
C1109      H1119   1.083       .  S
C1110      C1111   1.403       .  A
C1110      C1115   1.463       .  S
C1111      C1112   1.390       .  A
C1111      F1116   1.357       .  S
C1112      C1113   1.399       .  A
C1112      H1117   1.083       .  S
C1113      C1114   1.395       .  A
C1114      F1118   1.357       .  S
C1115      C1120   1.397       .  A
C1115      C1124   1.405       .  A
C1120      C1121   1.383       .  A
C1120      F1125   1.358       .  S
C1121      C1122   1.409       .  A
C1121      H1126   1.079       .  S
C1122      C1123   1.406       .  A
C1123      C1124   1.393       .  A
C1123      F1127   1.356       .  S
C1124      H1128   1.083       .  S
C1129      C1130   1.403       .  A
C1129      H1139   1.084   1_545  S
C1130      C1135   1.467       .  S
C1131      C1132   1.396       .  A
C1131      F1136   1.358       .  S
C1132      C1133   1.404       .  A
C1132      H1137   1.084       .  S
C1133      C1134   1.400       .  A
C1135      C1140   1.401       .  A
C1135      C1144   1.403   1_545  A
C1140      C1141   1.401       .  A
C1140      F1145   1.357       .  S
C1141      C1142   1.406   1_545  A
C1141      H1146   1.083       .  S
C1142      C1143   1.400       .  A
C1143      C1144   1.390       .  A
C1143      F1147   1.357       .  S
C1149      C1150   1.403       .  A
C1149      C1154   1.401       .  A
C1149      H1159   1.083       .  S
C1150      C1151   1.407       .  A
C1150      C1155   1.472       .  S
C1151      C1152   1.390       .  A
C1151      F1156   1.359       .  S
C1152      C1153   1.400       .  A
C1152      H1157   1.079       .  S
C1153      C1154   1.406       .  A
C1154      F1158   1.357       .  S
C1155      C1160   1.404       .  A
C1155      C1164   1.404       .  A
C1160      C1161   1.393       .  A
C1160      F1165   1.357       .  S
C1161      C1162   1.398       .  A
C1161      H1166   1.078       .  S
C1162      C1163   1.409       .  A
C1163      C1164   1.399       .  A
C1163      F1167   1.358       .  S
C1164      H1168   1.084       .  S
C1169      C1170   1.404       .  A
C1169      C1610   1.399       .  A
C1169      H1179   1.084       .  S
C1170      C1171   1.407       .  A
C1170      C1175   1.471       .  S
C1171      C2916   1.387       .  A
C1171      F2920   1.358       .  S
C1172      C2915   1.388       .  A
C1172      C3353   1.394       .  A
C1172      H1177   1.079       .  S
C1173      N2715   1.432       .  S
C1173      C3352   1.397       .  A
C1173      C1174   1.404       .  A
C1174      C1605   1.398       .  A
C1174      F1178   1.357       .  S
C1175      C1180   1.405       .  A
C1175      C1184   1.401       .  A
F1176      C2915   1.358       .  S
C1180      C1181   1.395       .  A
C1180      F1185   1.357       .  S
C1181      C1182   1.398       .  A
C1181      H1186   1.080       .  S
C1182      C1183   1.409       .  A
C1183      C1184   1.395       .  A
C1183      F1187   1.358       .  S
C1184      H1188   1.084       .  S
C1189      C1190   1.404       .  A
C1189      C1194   1.389       .  A
C1189      H1199   1.083       .  S
C1190      C1191   1.410       .  A
C1190      C1195   1.474       .  S
C1191      C1192   1.391       .  A
C1191      F1196   1.358       .  S
C1192      C1193   1.398       .  A
C1192      H1197   1.084       .  S
C1193      C1194   1.400       .  A
C1194      F1198   1.356       .  S
C1195      C1200   1.410       .  A
C1195      C1204   1.400       .  A
C1200      C1201   1.387       .  A
C1200      F1205   1.358       .  S
C1201      C1202   1.404       .  A
C1201      H1206   1.081       .  S
C1202      C1203   1.413       .  A
C1203      C1204   1.392       .  A
C1203      F1207   1.354       .  S
C1204      H1208   1.083       .  S
C1209      C1210   1.402   1_655  A
C1209      C1214   1.394       .  A
C1209      H1219   1.083       .  S
C1210      C1211   1.403       .  A
C1210      C1215   1.470       .  S
C1211      C1212   1.383   1_455  A
C1211      F1216   1.358       .  S
C1212      C1213   1.400       .  A
C1212      H1653   1.076   1_655  S
C1213      C1214   1.412       .  A
C1213      C2687   1.477       .  S
C1214      F2962   1.357       .  S
C1215      C1220   1.399       .  A
C1215      C1224   1.407       .  A
H1217      C1648   1.077       .  S
F1218      C2958   1.357       .  S
C1220      C1221   1.386       .  A
C1220      F1225   1.356       .  S
C1221      C1222   1.402       .  A
C1221      H1226   1.078       .  S
C1222      C1223   1.400       .  A
C1223      C1224   1.393       .  A
C1223      F1227   1.357       .  S
C1224      H1228   1.083       .  S
C1229      C1230   1.405       .  A
C1229      H1239   1.084   1_455  S
C1230      C1231   1.404       .  A
C1230      C2979   1.468   1_455  S
C1231      C1232   1.387       .  A
C1231      F1236   1.357       .  S
C1232      C1233   1.398       .  A
C1232      H1237   1.081       .  S
C1234      F1238   1.356       .  S
C1235      C1240   1.408       .  A
C1235      C2988   1.402       .  A
C1235      C2974   1.473       .  S
C1240      C1241   1.388       .  A
C1240      F1245   1.358       .  S
C1241      C1242   1.404       .  A
C1241      H1246   1.082       .  S
C1242      C2987   1.411       .  A
C1243      C2986   1.414       .  A
C1243      C1244   1.394   1_655  A
C1243      F1247   1.355   1_655  S
C1244      C2979   1.401   1_455  A
C1244      H1248   1.083       .  S
C1249      C1250   1.393       .  A
C1249      C1254   1.375       .  A
C1249      H3003   1.084       .  S
C1250      C1251   1.409       .  A
C1250      C2999   1.467       .  S
C1251      C1252   1.403       .  A
C1251      F1256   1.358       .  S
C1252      C1253   1.404       .  A
C1252      H1257   1.082       .  S
C1253      C1254   1.402       .  A
C1254      F1258   1.347       .  S
C1255      C1260   1.403       .  A
C1255      C1264   1.401       .  A
C1255      C2994   1.468       .  S
H1259      C2993   1.083       .  S
C1260      C1261   1.388       .  A
C1260      F1265   1.358       .  S
C1261      C1262   1.408       .  A
C1261      H1266   1.083       .  S
C1262      C1263   1.411       .  A
C1263      C1264   1.392       .  A
C1263      F1267   1.356       .  S
C1264      H1268   1.083       .  S
C1269      C1270   1.405       .  A
C1269      C1274   1.390       .  A
C1269      H1279   1.083       .  S
C1270      C1271   1.401       .  A
C1270      C1275   1.467       .  S
C1271      C1272   1.386       .  A
C1271      F1276   1.358       .  S
C1272      C1273   1.408       .  A
C1272      H1277   1.078       .  S
C1273      C1274   1.406       .  A
C1274      F1278   1.357       .  S
C1275      C1280   1.407       .  A
C1275      C1284   1.404       .  A
C1280      C1281   1.391       .  A
C1280      F1285   1.358       .  S
C1281      C1282   1.398       .  A
C1281      H1286   1.083       .  S
C1282      C1283   1.397       .  A
C1283      C1284   1.384       .  A
C1283      F3031   1.357   1_455  S
C1284      H1288   1.080       .  S
F1287      C3027   1.357       .  S
C1289      C1290   1.406       .  A
C1289      C1294   1.390       .  A
C1289      H1299   1.083       .  S
C1290      C1291   1.400       .  A
C1290      C1295   1.462       .  S
C1291      C1292   1.382       .  A
C1291      F1296   1.358       .  S
C1292      C1293   1.397       .  A
C1292      H1297   1.077       .  S
C1293      C1294   1.397       .  A
C1294      F1298   1.357       .  S
C1295      C1300   1.411       .  A
C1295      C1304   1.398       .  A
C1300      C1301   1.386       .  A
C1300      F1305   1.358       .  S
C1301      C1302   1.390       .  A
C1301      H1306   1.073       .  S
C1302      C1303   1.407       .  A
C1303      C1304   1.387       .  A
C1303      F1307   1.357       .  S
C1304      H1308   1.083       .  S
N1309      C1313   1.361       .  A
N1309      C1310   1.352       .  A
N1309      C1729   1.416       .  S
C1310      C1311   1.386       .  A
C1310      C1449   1.510       .  S
C1311      C1312   1.392       .  A
C1311      H1314   1.081       .  S
C1312      C1313   1.386       .  A
C1313      C1403   1.502       .  S
N1316      C3064   1.360   1_455  A
N1316      C1317   1.353       .  A
N1316      C1718   1.417       .  S
C1317      C1400   1.507       .  S
C1318      C3063   1.389   1_455  A
C1318      H1321   1.082       .  S
C1319      C3062   1.388       .  A
C1319      H1322   1.082       .  S
C1320      N3060   1.358       .  A
C1320      C1504   1.491       .  S
N1323      C1327   1.370       .  A
N1323      C1324   1.357       .  A
N1323      C1689   1.431       .  S
C1324      C1325   1.382       .  A
C1324      C1493   1.500       .  S
C1325      C1326   1.384       .  A
C1325      H1328   1.082       .  S
C1326      C1327   1.385       .  A
C1326      H1329   1.082       .  S
C1327      C1452   1.501       .  S
C1330      N1331   1.354       .  A
C1330      N1335   1.356       .  A
C1330      C1698   1.479       .  S
N1331      C1332   1.354       .  A
C1332      N1333   1.350       .  A
C1332      C1709   1.468       .  S
N1333      C1334   1.349       .  A
C1334      N1335   1.354       .  A
C1334      C1738   1.449       .  S
Fe1336     O1352   2.156       .  S
Fe1336     O1342   2.020       .  S
Fe1336     O1349   2.040       .  S
Fe1336     O1341   2.170       .  S
Fe1336     O1347   1.949       .  S
Fe1337     O1340   2.155       .  S
Fe1337     O1344   2.044       .  S
Fe1337     O1348   2.161       .  S
Fe1337     O1353   2.048       .  S
Fe1337     O1347   1.950       .  S
Fe1338     O1356   2.053       .  S
Fe1338     O1343   2.168       .  S
Fe1338     O1350   2.175       .  S
Fe1338     O1339   2.054       .  S
Fe1338     O1347   1.950       .  S
O1339      C1346   1.268       .  A
O1340      C1354   1.287       .  A
O1341      C1346   1.290       .  A
O1342      C1345   1.263       .  A
O1343      C1355   1.290       .  A
O1344      C1357   1.267       .  A
C1345      C1418   1.507       .  S
C1345      O1350   1.292       .  A
C1346      C1373   1.512       .  S
O1348      C1351   1.288       .  A
O1349      C1351   1.270       .  A
C1351      C1471   1.508       .  S
O1352      C1357   1.290       .  A
O1353      C1355   1.270       .  A
C1354      C1467   1.509       .  S
C1354      O1356   1.271       .  A
C1355      C1422   1.508       .  S
C1357      C1369   1.502       .  S
N1358      C1362   1.372       .  A
N1358      C1359   1.364       .  A
C1359      C1360   1.384       .  A
C1359      C3246   1.519       .  S
C1360      C1361   1.387       .  A
C1360      H1363   1.082       .  S
C1361      C1362   1.385       .  A
C1361      H1364   1.082       .  S
C1362      C1394   1.512       .  S
N1365      C1369   1.367       .  A
N1365      C1366   1.356       .  A
N1365      C1658   1.423       .  S
C1366      C1367   1.383       .  A
C1366      C1404   1.508       .  S
C1367      C1368   1.387       .  A
C1367      H1370   1.079       .  S
C1368      C1369   1.385       .  A
C1368      H1371   1.082       .  S
N1372      C1376   1.367       .  A
N1372      C1373   1.359       .  A
N1372      C1629   1.424       .  S
C1373      C1374   1.385       .  A
C1374      C1375   1.388       .  A
C1374      H1377   1.082       .  S
C1375      C1376   1.385       .  A
C1375      H1378   1.082       .  S
C1376      C1492   1.506       .  S
C1379      N1384   1.351   1_554  A
C1379      C3393   1.478   1_554  S
N1380      C1381   1.356       .  A
C1381      C1678   1.477       .  S
N1382      C1383   1.350       .  A
C1383      N1384   1.353   1_554  A
C1383      C1638   1.478   1_554  S
Fe1385     O1391   2.050       .  S
Fe1385     O1390   2.195       .  S
Fe1385     O1396   1.943       .  S
Fe1386     O1389   2.163       .  S
Fe1386     O1393   2.028       .  S
Fe1386     O1397   2.164       .  S
Fe1386     O1402   2.051       .  S
Fe1387     O1405   2.036       .  S
Fe1387     O1399   2.161       .  S
Fe1387     O1388   2.045       .  S
Fe1387     O1396   1.939       .  S
O1388      C1395   1.270       .  A
O1390      C1395   1.296       .  A
O1391      C1394   1.266       .  A
O1392      C1404   1.287       .  A
C1394      O1399   1.289       .  A
C1395      C1408   1.522       .  S
O1397      C1400   1.288       .  A
O1398      C1400   1.267       .  A
O1402      C1404   1.268       .  A
C1403      O1405   1.267       .  A
C1406      C1425   1.503       .  S
N1407      C3155   1.374       .  A
N1407      C1408   1.361   1_655  A
N1407      C3353   1.428       .  S
C1408      C1409   1.390       .  A
C1409      C1410   1.389       .  A
C1409      H1412   1.082       .  S
C1410      C3155   1.380   1_455  A
C1410      H1413   1.082       .  S
C1411      N3151   1.374       .  A
C1411      C3154   1.381       .  A
C1411      C1443   1.505       .  S
N1414      C1418   1.376       .  A
N1414      C1415   1.368       .  A
N1414      C1589   1.435       .  S
C1415      C1416   1.390       .  A
C1415      C1453   1.529       .  S
C1416      C1417   1.386       .  A
C1416      H1419   1.082       .  S
C1417      C1418   1.379       .  A
C1417      H1420   1.082       .  S
N1421      C1425   1.373       .  A
N1421      C1422   1.359       .  A
N1421      C1578   1.433       .  S
C1422      C1423   1.385       .  A
C1423      C1424   1.385       .  A
C1423      H1426   1.082       .  S
C1424      C1425   1.380       .  A
C1424      H1427   1.082       .  S
C1428      N1429   1.360       .  A
C1428      N1433   1.354       .  A
C1428      C1598   1.465       .  S
N1429      C1430   1.354       .  A
C1430      N1431   1.357       .  A
C1430      C1569   1.463       .  S
N1431      C1432   1.353       .  A
C1432      N1433   1.355       .  A
C1432      C1618   1.465       .  S
Fe1434     O1450   2.158       .  S
Fe1434     O1440   2.021       .  S
Fe1434     O1447   2.049       .  S
Fe1434     O1439   2.170       .  S
Fe1434     O1445   1.951       .  S
Fe1435     O1438   2.145       .  S
Fe1435     O1442   2.044       .  S
Fe1435     O1446   2.165       .  S
Fe1435     O1451   2.056       .  S
Fe1435     O1445   1.946       .  S
Fe1436     O1454   2.051       .  S
Fe1436     O1441   2.193       .  S
Fe1436     O1448   2.180       .  S
Fe1436     O1437   2.049       .  S
Fe1436     O1445   1.952       .  S
O1437      C1444   1.269       .  A
O1438      C1452   1.288       .  A
O1439      C1444   1.289       .  A
O1440      C1443   1.262       .  A
O1441      C1453   1.295       .  A
O1442      C1455   1.267       .  A
C1443      O1448   1.294       .  A
C1444      C1457   1.515       .  S
O1446      C1449   1.289       .  A
O1447      C1449   1.269       .  A
O1450      C1455   1.289       .  A
O1451      C1453   1.274       .  A
C1452      O1454   1.267       .  A
N1456      C1460   1.362       .  A
N1456      C1457   1.353       .  A
N1456      C1549   1.414       .  S
C1457      C1458   1.389       .  A
C1458      C1459   1.396       .  A
C1458      H1461   1.082       .  S
C1459      C1460   1.384       .  A
C1459      H1462   1.082       .  S
C1460      C1501   1.503       .  S
N1463      C1467   1.362       .  A
N1463      C1464   1.354       .  A
N1463      C1529   1.412       .  S
C1464      C1465   1.387       .  A
C1464      C1498   1.518       .  S
C1465      C1466   1.395       .  A
C1465      H3212   1.082       .  S
C1466      C1467   1.385       .  A
C1466      H1469   1.082       .  S
H1468      C3209   1.082       .  S
N1470      C1474   1.370       .  A
N1470      C1471   1.358       .  A
N1470      C1509   1.429       .  S
C1471      C1472   1.383       .  A
C1472      C1473   1.387       .  A
C1472      H1475   1.082       .  S
C1473      C1474   1.386       .  A
C1473      H1476   1.082       .  S
C1477      N1478   1.357   1_545  A
C1477      N1482   1.351       .  A
C1477      C1538   1.464   1_545  S
N1478      C1479   1.358       .  A
C1479      N1480   1.358   1_565  A
C1479      C1518   1.477       .  S
C1481      C1558   1.472       .  S
Fe1483     O1499   2.130       .  S
Fe1483     O1489   2.048       .  S
Fe1483     O1496   2.053       .  S
Fe1483     O1488   2.163       .  S
Fe1483     O1494   1.942       .  S
Fe1484     O1487   2.157       .  S
Fe1484     O1491   2.050       .  S
Fe1484     O2367   2.174       .  S
Fe1484     O1500   2.074       .  S
Fe1485     O1497   2.154       .  S
Fe1485     O1486   2.041       .  S
Fe1485     O1494   1.948       .  S
O1486      C1493   1.272       .  A
O1487      C1501   1.286       .  A
O1488      C1493   1.291       .  A
O1489      C1492   1.260       .  A
O1490      C1502   1.292       .  A
O1491      C1504   1.267       .  A
C1492      O1497   1.284       .  A
O1495     Fe2356   2.179       .  S
O1495      C1498   1.295       .  A
O1496      C3242   1.272       .  A
C1498      O3240   1.273   1_455  A
O1500      C1502   1.277       .  A
C1501      O1503   1.267       .  A
C1502      C3103   1.519       .  S
C1505      C1506   1.394   1_556  A
C1505      C1510   1.369       .  A
C1505      H1515   1.084       .  S
C1506      C1507   1.408       .  A
C1507      C1508   1.401       .  A
C1508      C1509   1.404   1_554  A
C1508      H1513   1.083       .  S
C1509      C1510   1.401       .  A
C1510      F1514   1.348       .  S
C1511      C1516   1.403       .  A
C1511      C1520   1.403       .  A
C1516      C1517   1.382       .  A
C1516      F1521   1.359       .  S
C1517      C1518   1.405       .  A
C1517      H1522   1.080       .  S
C1518      C1519   1.410       .  A
C1519      C1520   1.393       .  A
C1519      F1523   1.357       .  S
C1525      C1526   1.402       .  A
C1525      C1530   1.393       .  A
C1525      H1535   1.084       .  S
C1526      C1527   1.405       .  A
C1526      C1531   1.453       .  S
C1527      C1528   1.375       .  A
C1527      F1532   1.358       .  S
C1528      C1529   1.389       .  A
C1528      H1533   1.080       .  S
C1529      C1530   1.400       .  A
C1530      F1534   1.357       .  S
C1531      C1536   1.403       .  A
C1531      C1540   1.394       .  A
C1536      C1537   1.391   1_565  A
C1536      F1541   1.358   1_565  S
C1537      C1538   1.404   1_545  A
C1537      H1542   1.079       .  S
C1538      C1539   1.410       .  A
C1539      C1540   1.381       .  A
C1539      F1543   1.353       .  S
C1540      H1544   1.084       .  S
C1545      C1546   1.406       .  A
C1545      C1550   1.383       .  A
C1545      H1555   1.084       .  S
C1546      C1547   1.403       .  A
C1546      C1551   1.459       .  S
C1547      C1548   1.390       .  A
C1547      F1552   1.357       .  S
C1548      C1549   1.399       .  A
C1548      H1553   1.083       .  S
C1549      C1550   1.393       .  A
C1550      F1554   1.357       .  S
C1551      C1556   1.396       .  A
C1551      C1560   1.405       .  A
C1556      C1557   1.382       .  A
C1556      F1561   1.359       .  S
C1557      C1558   1.409       .  A
C1557      H1562   1.077       .  S
C1558      C1559   1.404       .  A
C1559      C1560   1.393       .  A
C1559      F1563   1.354       .  S
C1560      H1564   1.083       .  S
C1565      C1566   1.404       .  A
C1565      H1575   1.084   1_545  S
C1566      C1571   1.469       .  S
C1567      C1568   1.398       .  A
C1567      F1572   1.358       .  S
C1568      C1569   1.404       .  A
C1568      H1573   1.084       .  S
C1569      C1570   1.397       .  A
C1571      C1576   1.402       .  A
C1571      C1580   1.403   1_545  A
C1576      C1577   1.401   1_545  A
C1576      F1581   1.357       .  S
C1577      C1578   1.405       .  A
C1577      H1582   1.083   1_565  S
C1578      C1579   1.402       .  A
C1579      C1580   1.392       .  A
C1579      F1583   1.357       .  S
C1585      C1586   1.402       .  A
C1585      C1590   1.398       .  A
C1585      H1595   1.083       .  S
C1586      C1587   1.407       .  A
C1586      C1591   1.470       .  S
C1587      C1588   1.391       .  A
C1587      F1592   1.359       .  S
C1588      C1589   1.401       .  A
C1588      H1593   1.080       .  S
C1589      C1590   1.404       .  A
C1590      F1594   1.357       .  S
C1591      C1596   1.403       .  A
C1591      C1600   1.402       .  A
C1596      C1597   1.391       .  A
C1596      F1601   1.355       .  S
C1597      C1598   1.395       .  A
C1597      H1602   1.077       .  S
C1598      C1599   1.409       .  A
C1599      C1600   1.397       .  A
C1599      F1603   1.358       .  S
C1600      H1604   1.084       .  S
C1605      C1606   1.403   1_554  A
C1605      H1615   1.083       .  S
C1606      C1607   1.406       .  A
C1606      C1611   1.471       .  S
C1607      C3352   1.392   1_556  A
C1607      F3356   1.358       .  S
C1608      C3351   1.390       .  A
C1608      C2917   1.396   1_556  A
C1608      H1613   1.077       .  S
C1609      N3151   1.431       .  S
C1609      C2916   1.394       .  A
C1609      C1610   1.405       .  A
C1610      F1614   1.357       .  S
C1611      C1616   1.405       .  A
C1611      C1620   1.402       .  A
F1612      C3351   1.358       .  S
C1616      C1617   1.393       .  A
C1616      F1621   1.356       .  S
C1617      C1618   1.397       .  A
C1617      H1622   1.080       .  S
C1618      C1619   1.410       .  A
C1619      C1620   1.398       .  A
C1619      F1623   1.358       .  S
C1620      H1624   1.084       .  S
C1625      C1626   1.402       .  A
C1625      C1630   1.388       .  A
C1625      H1635   1.084       .  S
C1626      C1627   1.406       .  A
C1626      C1631   1.466       .  S
C1627      C1628   1.391       .  A
C1627      F1632   1.358       .  S
C1628      C1629   1.400       .  A
C1628      H1633   1.083       .  S
C1629      C1630   1.401       .  A
C1630      F1634   1.357       .  S
C1631      C1636   1.406       .  A
C1631      C1640   1.399       .  A
C1636      C1637   1.386       .  A
C1636      F1641   1.358       .  S
C1637      C1638   1.404       .  A
C1637      H1642   1.080       .  S
C1638      C1639   1.415       .  A
C1639      C1640   1.394       .  A
C1639      F1643   1.354   1_556  S
C1640      H1644   1.083       .  S
C1645      C1646   1.399   1_655  A
C1645      C1650   1.393       .  A
C1645      H1655   1.083       .  S
C1646      C1647   1.402       .  A
C1646      C1651   1.466       .  S
C1647      C1648   1.385   1_456  A
C1647      F1652   1.358   1_556  S
C1648      C1649   1.403   1_554  A
C1649      C1650   1.413       .  A
C1649      C3123   1.478   1_556  S
C1650      F3398   1.355       .  S
C1651      C1656   1.399       .  A
C1651      C1660   1.406       .  A
F1654      C3394   1.355       .  S
C1656      C1657   1.386       .  A
C1656      F1661   1.357       .  S
C1657      C1658   1.401       .  A
C1657      H1662   1.079       .  S
C1658      C1659   1.399       .  A
C1659      C1660   1.392       .  A
C1659      F1663   1.357       .  S
C1660      H1664   1.084       .  S
C1665      C1666   1.405       .  A
C1665      H1675   1.084   1_455  S
C1666      C1667   1.403       .  A
C1666      C3415   1.468   1_455  S
C1667      C1668   1.385       .  A
C1667      F1672   1.357       .  S
C1668      C1669   1.400       .  A
C1668      H1673   1.081       .  S
C1670      F1674   1.356       .  S
C1671      C1676   1.404       .  A
C1671      C3424   1.399       .  A
C1671      C3410   1.463       .  S
C1676      C1677   1.388       .  A
C1676      F1681   1.358       .  S
C1677      C1678   1.406       .  A
C1677      H1682   1.081       .  S
C1678      C3423   1.411       .  A
C1679      C3422   1.411       .  A
C1679      C1680   1.393   1_655  A
C1679      F1683   1.354   1_655  S
C1680      C3415   1.401   1_455  A
C1680      H1684   1.083       .  S
C1685      C1686   1.393       .  A
C1685      C1690   1.378       .  A
C1685      H3439   1.083       .  S
C1686      C1687   1.409       .  A
C1686      C3435   1.466       .  S
C1687      C1688   1.400       .  A
C1687      F1692   1.357       .  S
C1688      C1689   1.402       .  A
C1688      H1693   1.082       .  S
C1689      C1690   1.403       .  A
C1690      F1694   1.348       .  S
C1691      C1696   1.404       .  A
C1691      C1700   1.400       .  A
C1691      C3430   1.468       .  S
H1695      C3429   1.083       .  S
C1696      C1697   1.386       .  A
C1696      F1701   1.358       .  S
C1697      C1698   1.407       .  A
C1697      H1702   1.083       .  S
C1698      C1699   1.412       .  A
C1699      C1700   1.394       .  A
C1699      F1703   1.356       .  S
C1700      H1704   1.083       .  S
C1705      C1706   1.405       .  A
C1705      C1710   1.389       .  A
C1705      H1715   1.083       .  S
C1706      C1707   1.399       .  A
C1706      C1711   1.462       .  S
C1707      C1708   1.385       .  A
C1707      F1712   1.358       .  S
C1708      C1709   1.409       .  A
C1708      H1713   1.077       .  S
C1709      C1710   1.404       .  A
C1710      F1714   1.357       .  S
C1711      C1716   1.406       .  A
C1711      C1720   1.403       .  A
C1716      C1717   1.390       .  A
C1716      F1721   1.358       .  S
C1717      C1718   1.398       .  A
C1717      H1722   1.083       .  S
C1718      C1719   1.396       .  A
C1719      C1720   1.383       .  A
C1719      F3467   1.357   1_455  S
C1720      H1724   1.082       .  S
F1723      C3463   1.357       .  S
C1725      C1726   1.404       .  A
C1725      C1730   1.389       .  A
C1725      H1735   1.083       .  S
C1726      C1727   1.400       .  A
C1726      C1731   1.455       .  S
C1727      C1728   1.381       .  A
C1727      F1732   1.358       .  S
C1728      C1729   1.396       .  A
C1728      H1733   1.078       .  S
C1729      C1730   1.398       .  A
C1730      F1734   1.357       .  S
C1731      C1736   1.409       .  A
C1731      C1740   1.396       .  A
C1736      C1737   1.384       .  A
C1736      F1741   1.358       .  S
C1737      C1738   1.390       .  A
C1737      H1742   1.074       .  S
C1738      C1739   1.408       .  A
C1739      C1740   1.387       .  A
C1739      F1743   1.357       .  S
C1740      H1744   1.084       .  S
N1745      C1749   1.362       .  A
N1745      C1746   1.353       .  A
N1745      C2165   1.420       .  S
C1746      C1747   1.383       .  A
C1746      C1885   1.502       .  S
C1747      C1748   1.386   1_554  A
C1747      H1750   1.080   1_554  S
C1748      C1749   1.385   1_556  A
C1748      H2187   1.079       .  S
C1749      C1839   1.498   1_554  S
H1751      C2184   1.082       .  S
N1752      C1753   1.348       .  A
N1752      C2154   1.414       .  S
C1753      C2626   1.387   1_545  A
C1753      C1836   1.502       .  S
C1754      C2625   1.387       .  A
C1754      H1757   1.082       .  S
C1755      C2628   1.385       .  A
C1755      H1758   1.082       .  S
C1756      C2627   1.384       .  A
C1756      C1940   1.495       .  S
N1759      C1763   1.368       .  A
N1759      C1760   1.355       .  A
N1759      C2125   1.431       .  S
C1760      C1761   1.381       .  A
C1760      C1929   1.496       .  S
C1761      C1762   1.383       .  A
C1761      H1764   1.082       .  S
C1762      C1763   1.385       .  A
C1762      H1765   1.082       .  S
C1763      C1888   1.495       .  S
C1766      N1767   1.355       .  A
C1766      N1771   1.359       .  A
C1766      C2134   1.480       .  S
N1767      C1768   1.353       .  A
C1768      N1769   1.349       .  A
C1768      C2145   1.474       .  S
N1769      C1770   1.348       .  A
C1770      N1771   1.357       .  A
C1770      C2174   1.449       .  S
Fe1772     O1788   2.160       .  S
Fe1772     O1778   2.019       .  S
Fe1772     O1785   2.037       .  S
Fe1772     O1777   2.174       .  S
Fe1772     O1783   1.948       .  S
Fe1773     O1776   2.156       .  S
Fe1773     O1780   2.044       .  S
Fe1773     O1784   2.167       .  S
Fe1773     O1789   2.050       .  S
Fe1773     O1783   1.945       .  S
Fe1774     O1792   2.046       .  S
Fe1774     O1779   2.182       .  S
Fe1774     O1786   2.173       .  S
Fe1774     O1775   2.054       .  S
Fe1774     O1783   1.946       .  S
O1775      C1782   1.270       .  A
O1776      C1790   1.287       .  A
O1777      C1782   1.291       .  A
O1778      C1781   1.262       .  A
O1779      C1791   1.293       .  A
O1780      C1793   1.264       .  A
C1781      C1854   1.501       .  S
C1781      O1786   1.292       .  A
C1782      C1809   1.514       .  S
O1784      C1787   1.290       .  A
O1785      C1787   1.270       .  A
C1787      C1907   1.509       .  S
O1788      C1793   1.290       .  A
O1789      C1791   1.271       .  A
C1790      C1903   1.504       .  S
C1790      O1792   1.267       .  A
C1791      C1858   1.515       .  S
C1793      C1805   1.505       .  S
N1794      C1798   1.372       .  A
N1794      C1795   1.364       .  A
N1794      C2977   1.424   1_545  S
C1795      C1796   1.385       .  A
C1796      C1797   1.389       .  A
C1796      H1799   1.082       .  S
C1797      C1798   1.386       .  A
C1797      H1800   1.082       .  S
C1798      C1830   1.516       .  S
N1801      C1805   1.371       .  A
N1801      C1802   1.359       .  A
N1801      C2094   1.428       .  S
C1802      C1803   1.382       .  A
C1802      C1840   1.510       .  S
C1803      C1804   1.385       .  A
C1803      H1806   1.078       .  S
C1804      C1805   1.385       .  A
C1804      H1807   1.082       .  S
N1808      C1812   1.366       .  A
N1808      C1809   1.358       .  A
N1808      C2065   1.422       .  S
C1809      C1810   1.386       .  A
C1810      C1811   1.391       .  A
C1810      H1813   1.082       .  S
C1811      C1812   1.385       .  A
C1811      H1814   1.082       .  S
C1812      C1928   1.507       .  S
C1815      N2252   1.358       .  A
C1815      N1820   1.351       .  A
N1816      C2251   1.358       .  A
N1816      C1817   1.355       .  A
C1817      N2254   1.352       .  A
C1817      C2114   1.475       .  S
N1818      C2253   1.355       .  A
N1818      C1819   1.351       .  A
C1819      N1820   1.353       .  A
C1819      C2074   1.477       .  S
Fe1821     O2709   2.179       .  S
Fe1821     O1827   2.053   1_556  S
Fe1821     O2270   2.044       .  S
Fe1821     O1826   2.192   1_556  S
Fe1821     O1832   1.943       .  S
Fe1822     O1825   2.154       .  S
Fe1822     O1829   2.030       .  S
Fe1822     O1833   2.164       .  S
Fe1822     O1838   2.056       .  S
Fe1822     O2268   1.954       .  S
Fe1823     O1841   2.039       .  S
Fe1823     O2264   2.178   1_554  S
Fe1823     O1835   2.166       .  S
Fe1823     O1824   2.048       .  S
Fe1823     O1832   1.935   1_554  S
O1824      C1831   1.271       .  A
O1825      C2275   1.289       .  A
O1826      C1831   1.295       .  A
O1827      C1830   1.267       .  A
O1828     Fe2259   2.157       .  S
O1828      C1840   1.285       .  A
O1829      C2714   1.264   1_545  A
C1830      O1835   1.290       .  A
C1831      C1844   1.520       .  S
O1832     Fe2258   1.956       .  S
O1833      C1836   1.289       .  A
O1834     Fe2257   2.033       .  S
O1834      C1836   1.264       .  A
O1837     Fe2693   2.182       .  S
O1837      C2278   1.296       .  A
O1838      C1840   1.270       .  A
C1839      O2261   1.286       .  A
C1839      O1841   1.265   1_556  A
C1842      C1861   1.507       .  S
C1842      O2701   1.267       .  A
C1842      O2273   1.295       .  A
N1843      C1844   1.361       .  A
C1844      C1845   1.389       .  A
C1845      C1846   1.389       .  A
C1845      H1848   1.082       .  S
C1846      H1849   1.082       .  S
C1847      C1879   1.507       .  S
N1850      C1854   1.376       .  A
N1850      C1851   1.366       .  A
N1850      C2025   1.436       .  S
C1851      C1852   1.390       .  A
C1851      C1889   1.523       .  S
C1852      C1853   1.383       .  A
C1852      H1855   1.082       .  S
C1853      C1854   1.378       .  A
C1853      H1856   1.082       .  S
N1857      C1861   1.371       .  A
N1857      C1858   1.359       .  A
N1857      C2014   1.426       .  S
C1858      C1859   1.387       .  A
C1859      C1860   1.389       .  A
C1859      H1862   1.082       .  S
C1860      C1861   1.381       .  A
C1860      H1863   1.082       .  S
C1864      N1865   1.361       .  A
C1864      N1869   1.355       .  A
C1864      C2034   1.470       .  S
N1865      C1866   1.356       .  A
C1866      N1867   1.356       .  A
C1866      C2005   1.466       .  S
N1867      C1868   1.353       .  A
C1868      N1869   1.357       .  A
C1868      C2054   1.464       .  S
Fe1870     O1886   2.161       .  S
Fe1870     O1876   2.027       .  S
Fe1870     O1883   2.051       .  S
Fe1870     O1875   2.171       .  S
Fe1870     O1881   1.944       .  S
Fe1871     O1874   2.139       .  S
Fe1871     O1878   2.040       .  S
Fe1871     O1882   2.148       .  S
Fe1871     O1887   2.047       .  S
Fe1871     O1881   1.945       .  S
Fe1872     O1890   2.048       .  S
Fe1872     O1877   2.191       .  S
Fe1872     O1884   2.178       .  S
Fe1872     O1873   2.043       .  S
Fe1872     O1881   1.948       .  S
O1873      C1880   1.267       .  A
O1874      C1888   1.287       .  A
O1875      C1880   1.289       .  A
O1876      C1879   1.264       .  A
O1877      C1889   1.293       .  A
O1878      C1891   1.267       .  A
C1879      O1884   1.294       .  A
C1880      C1893   1.511       .  S
O1882      C1885   1.284       .  A
O1883      C1885   1.267       .  A
O1886      C1891   1.293       .  A
O1887      C1889   1.269       .  A
C1888      O1890   1.267       .  A
C1891      C2346   1.502   1_554  S
N1892      C1896   1.361       .  A
N1892      C1893   1.352       .  A
N1892      C1985   1.416       .  S
C1893      C1894   1.389       .  A
C1894      C1895   1.393       .  A
C1894      H1897   1.082       .  S
C1895      C1896   1.383       .  A
C1895      H1898   1.082       .  S
C1896      C1937   1.497       .  S
N1899      C1903   1.362       .  A
N1899      C1900   1.353       .  A
N1899      C1965   1.414       .  S
C1900      C1901   1.387       .  A
C1900      C1934   1.515       .  S
C1901      C1902   1.394       .  A
C1902      C1903   1.384       .  A
C1902      H1905   1.082       .  S
N1906      C1910   1.371       .  A
N1906      C1907   1.357       .  A
N1906      C1945   1.430       .  S
C1907      C1908   1.383       .  A
C1908      C1909   1.387       .  A
C1908      H1911   1.082       .  S
C1909      C1910   1.385       .  A
C1909      H1912   1.082       .  S
C1910      C2327   1.504       .  S
C1913      N1914   1.357       .  A
C1913      N1918   1.352       .  A
C1913      C1974   1.463       .  S
N1914      C1915   1.356       .  A
C1915      N1916   1.357       .  A
C1915      C1954   1.477       .  S
N1916      C2789   1.350       .  A
C1917      N2788   1.352       .  A
C1917      N2790   1.357       .  A
C1917      C1994   1.472       .  S
N1918      C2789   1.352       .  A
Fe1919     O1935   2.137       .  S
Fe1919     O1925   2.042       .  S
Fe1919     O1932   2.044       .  S
Fe1919     O1924   2.156       .  S
Fe1919     O1930   1.946       .  S
Fe1920     O1923   2.150   1_465  S
Fe1920     O1927   2.050   1_465  S
Fe1920     O1936   2.076       .  S
Fe1920     O2802   1.945   1_455  S
Fe1921     O2811   2.040       .  S
Fe1921     O2798   2.173       .  S
Fe1921     O1933   2.160       .  S
Fe1921     O1922   2.039       .  S
Fe1921     O1930   1.947       .  S
O1922      C1929   1.271       .  A
O1923      C1937   1.287       .  A
O1924      C1929   1.289       .  A
O1925      C1928   1.261       .  A
O1926     Fe2793   2.168   1_545  S
O1926      C1938   1.289   1_655  A
O1927      C1940   1.267   1_545  A
C1928      O1933   1.286       .  A
O1930     Fe2792   1.941   1_655  S
O1931      C1934   1.293       .  A
O1935      C2812   1.283       .  A
O1936      C1938   1.276   1_565  A
C1937      O1939   1.268       .  A
O1939     Fe2793   2.041   1_545  S
C1940      O2807   1.282       .  A
C1941      C1942   1.395       .  A
C1941      C1946   1.370       .  A
C1941      H1951   1.084       .  S
C1942      C1943   1.409       .  A
C1942      C2383   1.467       .  S
C1943      C1944   1.402       .  A
C1943      F2384   1.357       .  S
C1944      C1945   1.404       .  A
C1944      H1949   1.083       .  S
C1945      C1946   1.402       .  A
C1946      F1950   1.350       .  S
C1947      C1952   1.405       .  A
C1947      C1956   1.402       .  A
C1947      C2378   1.472       .  S
F1948      C2379   1.357       .  S
C1952      C1953   1.381       .  A
C1952      F1957   1.359       .  S
C1953      C1954   1.405       .  A
C1953      H1958   1.080       .  S
C1954      C1955   1.410       .  A
C1955      C1956   1.395       .  A
C1955      F1959   1.357       .  S
C1956      H2396   1.082       .  S
H1960      C2392   1.083       .  S
C1961      C1962   1.403       .  A
C1961      C1966   1.392       .  A
C1961      H1971   1.083       .  S
C1962      C1963   1.407       .  A
C1962      C1967   1.460       .  S
C1963      C1964   1.379       .  A
C1963      F1968   1.358       .  S
C1964      C1965   1.390       .  A
C1964      H1969   1.080       .  S
C1965      C1966   1.399       .  A
C1966      F1970   1.355       .  S
C1967      C1972   1.407       .  A
C1967      C1976   1.394       .  A
C1972      C1973   1.393       .  A
C1972      F1977   1.358       .  S
C1973      C1974   1.400       .  A
C1973      H1978   1.079       .  S
C1974      C1975   1.409       .  A
C1975      C1976   1.381       .  A
C1975      F1979   1.353       .  S
C1976      H1980   1.084       .  S
C1981      C1982   1.409       .  A
C1981      C1986   1.383       .  A
C1981      H1991   1.082       .  S
C1982      C1983   1.405       .  A
C1982      C1987   1.469       .  S
C1983      C1984   1.394       .  A
C1983      F1988   1.357       .  S
C1984      C1985   1.399       .  A
C1984      H1989   1.081       .  S
C1985      C1986   1.391       .  A
C1986      F1990   1.357       .  S
C1987      C1992   1.398       .  A
C1987      C1996   1.409       .  A
C1992      C1993   1.382       .  A
C1992      F1997   1.359   1_545  S
C1993      C1994   1.406       .  A
C1993      H1998   1.071       .  S
C1994      C1995   1.402       .  A
C1995      C1996   1.398       .  A
C1995      F1999   1.353       .  S
C1996      H2000   1.082       .  S
C2001      C2002   1.402       .  A
C2001      C2878   1.394       .  A
C2001      H2011   1.084       .  S
C2002      C2875   1.402       .  A
C2002      C2007   1.464       .  S
C2003      C2874   1.404       .  A
C2003      C2004   1.400       .  A
C2003      F2008   1.358       .  S
C2004      C2005   1.406       .  A
C2004      H2009   1.084       .  S
C2005      C2006   1.399       .  A
C2006      C2873   1.393       .  A
C2006      F2882   1.352   1_545  S
C2007      C2012   1.401       .  A
C2007      C2016   1.403       .  A
F2010      C2878   1.350       .  S
C2012      C2013   1.399       .  A
C2012      F2017   1.357       .  S
C2013      C2014   1.403       .  A
C2013      H2018   1.083       .  S
C2014      C2015   1.398       .  A
C2015      C2016   1.390       .  A
C2015      F2019   1.356       .  S
C2016      H2892   1.084       .  S
H2020      C2888   1.084       .  S
C2021      C2022   1.403       .  A
C2021      C2026   1.401       .  A
C2021      H2031   1.083       .  S
C2022      C2023   1.407       .  A
C2022      C2027   1.472       .  S
C2023      C2024   1.390       .  A
C2023      F2028   1.359       .  S
C2024      C2025   1.399       .  A
C2024      H2029   1.081       .  S
C2025      C2026   1.407       .  A
C2026      F2030   1.357       .  S
C2027      C2032   1.403       .  A
C2027      C2036   1.404       .  A
C2032      C2033   1.391       .  A
C2032      F2037   1.355       .  S
C2033      C2034   1.396       .  A
C2033      H2038   1.080       .  S
C2034      C2035   1.410       .  A
C2035      C2036   1.400       .  A
C2035      F2039   1.358       .  S
C2036      H2040   1.083       .  S
C2041      C2042   1.403       .  A
C2041      C2482   1.399       .  A
C2041      H2051   1.083       .  S
C2042      C2043   1.405       .  A
C2042      C2047   1.467       .  S
C2044      H2049   1.079       .  S
C2045      C2046   1.403       .  A
C2046      C2477   1.397       .  A
C2046      F2050   1.356       .  S
C2047      C2052   1.404       .  A
C2047      C2056   1.401       .  A
C2052      C2053   1.393       .  A
C2052      F2057   1.356       .  S
C2053      C2054   1.396       .  A
C2053      H2058   1.079       .  S
C2054      C2055   1.409       .  A
C2055      C2056   1.396       .  A
C2055      F2059   1.358       .  S
C2056      H2060   1.084       .  S
C2061      C2062   1.404       .  A
C2061      C2066   1.389       .  A
C2061      H2071   1.084       .  S
C2062      C2063   1.408       .  A
C2062      C2067   1.470       .  S
C2063      C2064   1.389       .  A
C2063      F2068   1.358       .  S
C2064      C2065   1.398       .  A
C2064      H2069   1.084       .  S
C2065      C2066   1.400       .  A
C2066      F2070   1.357       .  S
C2067      C2072   1.408       .  A
C2067      C2076   1.400       .  A
C2072      C2073   1.386       .  A
C2072      F2077   1.358       .  S
C2073      C2074   1.404       .  A
C2073      H2078   1.081       .  S
C2074      C2075   1.413       .  A
C2075      C2076   1.392       .  A
C2075      F2079   1.353       .  S
C2076      H2080   1.083       .  S
C2081      C2082   1.400       .  A
C2081      C2086   1.395       .  A
C2081      H2091   1.083       .  S
C2082      C2083   1.403       .  A
C2082      C2087   1.464       .  S
C2083      C2084   1.382       .  A
C2083      F2088   1.358       .  S
C2084      C2085   1.400       .  A
C2084      H2525   1.077       .  S
C2085      C2086   1.414       .  A
C2087      C2092   1.397       .  A
C2087      C2096   1.405       .  A
H2089      C2520   1.077       .  S
C2092      C2093   1.386       .  A
C2092      F2097   1.357       .  S
C2093      C2094   1.403       .  A
C2093      H2098   1.077       .  S
C2094      C2095   1.400       .  A
C2095      C2096   1.391       .  A
C2095      F2099   1.356       .  S
C2096      H2100   1.083       .  S
C2101      C2102   1.403       .  A
C2101      C2978   1.389       .  A
C2101      H2111   1.084       .  S
C2102      C2103   1.403       .  A
C2103      C2104   1.385       .  A
C2103      F2108   1.357       .  S
C2104      C2105   1.399       .  A
C2104      H2109   1.080       .  S
C2105      N2666   1.423       .  S
C2105      C2978   1.400       .  A
C2106      C2973   1.391       .  A
C2106      C2977   1.400       .  A
C2106      F2110   1.356   1_565  S
C2107      C2112   1.403       .  A
C2112      C2113   1.389       .  A
C2112      F2117   1.358       .  S
C2113      C2114   1.404       .  A
C2113      H2118   1.082       .  S
C2115      C2116   1.393       .  A
C2115      F2119   1.354       .  S
C2116      H2120   1.084       .  S
C2121      C2122   1.395       .  A
C2121      C2126   1.378   1_455  A
C2122      C2123   1.410   1_455  A
C2123      C2124   1.400       .  A
C2123      F2128   1.357       .  S
C2124      C2125   1.402       .  A
C2124      H2129   1.082       .  S
C2125      C2126   1.403       .  A
C2126      F2130   1.349       .  S
C2127      C2132   1.404       .  A
C2127      C2136   1.399       .  A
C2132      C2133   1.392       .  A
C2132      F2137   1.358       .  S
C2133      C2134   1.408       .  A
C2133      H2138   1.083       .  S
C2134      C2135   1.413       .  A
C2135      C2136   1.392       .  A
C2135      F2139   1.356       .  S
C2136      H2140   1.083       .  S
C2141      C2142   1.405       .  A
C2141      C2146   1.389       .  A
C2141      H2151   1.083       .  S
C2142      C2143   1.402       .  A
C2142      C2147   1.467       .  S
C2143      C2144   1.386       .  A
C2143      F2148   1.358       .  S
C2144      C2145   1.408       .  A
C2144      H2149   1.079       .  S
C2145      C2146   1.407       .  A
C2146      F2150   1.357       .  S
C2147      C2152   1.408       .  A
C2147      C2156   1.404       .  A
C2152      C2153   1.390       .  A
C2152      F2157   1.357       .  S
C2153      C2154   1.396       .  A
C2153      H2158   1.083       .  S
C2154      C2155   1.394       .  A
C2155      C2156   1.382       .  A
C2156      H2160   1.080       .  S
C2161      C2162   1.406       .  A
C2161      C2166   1.387       .  A
C2161      H2171   1.083       .  S
C2162      C2163   1.399       .  A
C2162      C2167   1.461       .  S
C2163      C2164   1.385       .  A
C2163      F2168   1.358       .  S
C2164      C2165   1.400       .  A
C2164      H2169   1.079       .  S
C2165      C2166   1.398       .  A
C2166      F2170   1.357       .  S
C2167      C2172   1.412       .  A
C2167      C2176   1.397       .  A
C2172      C2173   1.390       .  A
C2172      F2177   1.358       .  S
C2173      C2174   1.391       .  A
C2173      H2178   1.077       .  S
C2174      C2175   1.406       .  A
C2175      C2176   1.385       .  A
C2175      F2179   1.357       .  S
C2176      H2180   1.084       .  S
N2181      C2185   1.362       .  A
N2181      C2182   1.351       .  A
N2181      C2601   1.420       .  S
C2182      C2183   1.385       .  A
C2182      C2321   1.502       .  S
C2183      C2184   1.389       .  A
C2183      H2186   1.082       .  S
C2184      C2185   1.385       .  A
C2185      C2275   1.498       .  S
N2188      C2189   1.352       .  A
N2188      C2590   1.422       .  S
C2189      C3062   1.385   1_545  A
C2189      C2272   1.500       .  S
C2190      C3061   1.387       .  A
C2190      H2193   1.082       .  S
C2191      C3064   1.384       .  A
C2191      H2194   1.082       .  S
C2192      C3063   1.385       .  A
C2192      C2376   1.491       .  S
N2195      C2199   1.367       .  A
N2195      C2196   1.355       .  A
N2195      C2561   1.428       .  S
C2196      C2197   1.383       .  A
C2196      C2365   1.502       .  S
C2197      C2198   1.386       .  A
C2197      H2200   1.082       .  S
C2198      C2199   1.385       .  A
C2198      H2201   1.082       .  S
C2199      C2324   1.498       .  S
C2202      N2203   1.354       .  A
C2202      N2207   1.355       .  A
C2202      C2570   1.476       .  S
N2203      C2204   1.354       .  A
C2204      N2205   1.350       .  A
C2204      C2581   1.471       .  S
N2205      C2206   1.347       .  A
C2206      N2207   1.353       .  A
C2206      C2610   1.449       .  S
Fe2208     O2224   2.162       .  S
Fe2208     O2214   2.014       .  S
Fe2208     O2221   2.034       .  S
Fe2208     O2213   2.173       .  S
Fe2208     O2219   1.952       .  S
Fe2209     O2212   2.156       .  S
Fe2209     O2216   2.049       .  S
Fe2209     O2220   2.160       .  S
Fe2209     O2225   2.050       .  S
Fe2209     O2219   1.947       .  S
Fe2210     O2228   2.048       .  S
Fe2210     O2215   2.181       .  S
Fe2210     O2222   2.177       .  S
Fe2210     O2211   2.056       .  S
Fe2210     O2219   1.953       .  S
O2211      C2218   1.269       .  A
O2212      C2226   1.289       .  A
O2213      C2218   1.290       .  A
O2214      C2217   1.262       .  A
O2215      C2227   1.292       .  A
O2216      C2229   1.267       .  A
C2217      C2290   1.502       .  S
C2217      O2222   1.293       .  A
C2218      C2245   1.515       .  S
O2220      C2223   1.289       .  A
O2221      C2223   1.269       .  A
C2223      C2343   1.504       .  S
O2224      C2229   1.290       .  A
O2225      C2227   1.270       .  A
C2226      C2339   1.506       .  S
C2226      O2228   1.269       .  A
C2227      C2294   1.518       .  S
C2229      C2241   1.509       .  S
N2230      C2234   1.371       .  A
N2230      C2231   1.363       .  A
N2230      C3413   1.424   1_545  S
C2231      C2232   1.384       .  A
C2232      C2233   1.389       .  A
C2232      H2235   1.082       .  S
C2233      C2234   1.386       .  A
C2233      H2236   1.082       .  S
C2234      C2266   1.513       .  S
N2237      C2241   1.371       .  A
N2237      C2238   1.359       .  A
N2237      C2530   1.424       .  S
C2238      C2239   1.381       .  A
C2238      C2276   1.517       .  S
C2239      C2240   1.388       .  A
C2239      H2242   1.078       .  S
C2240      C2241   1.386       .  A
C2240      H2243   1.082       .  S
N2244      C2248   1.366       .  A
N2244      C2245   1.358       .  A
N2244      C2501   1.421       .  S
C2245      C2246   1.386       .  A
C2246      C2247   1.390       .  A
C2246      H2249   1.081       .  S
C2247      C2248   1.384       .  A
C2247      H2250   1.081       .  S
C2248      C2364   1.504       .  S
C2251      N2256   1.352   1_554  A
N2252      C2253   1.356       .  A
C2253      C2550   1.479       .  S
N2254      C2255   1.349       .  A
C2255      N2256   1.353   1_554  A
C2255      C2510   1.476   1_554  S
Fe2257     O3145   2.191       .  S
Fe2257     O2263   2.051       .  S
Fe2257     O2262   2.195       .  S
Fe2257     O2268   1.942       .  S
Fe2258     O2261   2.150       .  S
Fe2258     O2265   2.030       .  S
Fe2258     O2269   2.155       .  S
Fe2258     O2274   2.051       .  S
Fe2259     O2277   2.035       .  S
Fe2259     O2271   2.159       .  S
Fe2259     O2260   2.047       .  S
Fe2259     O2268   1.938       .  S
O2260      C2267   1.270       .  A
O2262      C2267   1.295       .  A
O2263      C2266   1.268       .  A
O2264      C2276   1.291       .  A
O2265      C3150   1.265   1_545  A
C2266      O2271   1.288       .  A
C2267      C2280   1.520       .  S
O2269      C2272   1.287       .  A
O2270      C2272   1.267       .  A
O2273     Fe3129   2.177       .  S
O2274      C2276   1.270       .  A
C2275      O2277   1.268       .  A
C2278      C2297   1.510       .  S
C2278      O3137   1.265       .  A
N2279      C2280   1.363       .  A
C2280      C2281   1.389       .  A
C2281      C2282   1.387       .  A
C2281      H2284   1.082       .  S
C2282      H2285   1.082       .  S
C2283      C2315   1.505       .  S
N2286      C2290   1.375       .  A
N2286      C2287   1.365       .  A
N2286      C2461   1.436       .  S
C2287      C2288   1.389       .  A
C2287      C2325   1.521       .  S
C2288      C2289   1.385       .  A
C2288      H2291   1.082       .  S
C2289      C2290   1.379       .  A
C2289      H2292   1.082       .  S
N2293      C2297   1.373       .  A
N2293      C2294   1.360       .  A
N2293      C2450   1.428       .  S
C2294      C2295   1.387       .  A
C2295      C2296   1.389       .  A
C2295      H2298   1.082       .  S
C2296      C2297   1.381       .  A
C2296      H2299   1.082       .  S
C2300      N2301   1.359       .  A
C2300      N2305   1.355       .  A
C2300      C2470   1.469       .  S
N2301      C2302   1.356       .  A
C2302      N2303   1.357       .  A
C2302      C2441   1.463       .  S
N2303      C2304   1.354       .  A
C2304      N2305   1.357       .  A
C2304      C2490   1.467       .  S
Fe2306     O2322   2.163       .  S
Fe2306     O2312   2.022       .  S
Fe2306     O2319   2.041       .  S
Fe2306     O2311   2.164       .  S
Fe2306     O2317   1.943       .  S
Fe2307     O2310   2.148       .  S
Fe2307     O2314   2.043       .  S
Fe2307     O2318   2.161       .  S
Fe2307     O2323   2.050       .  S
Fe2307     O2317   1.943       .  S
Fe2308     O2326   2.046       .  S
Fe2308     O2313   2.183       .  S
Fe2308     O2320   2.176       .  S
Fe2308     O2309   2.045       .  S
Fe2308     O2317   1.949       .  S
O2309      C2316   1.267       .  A
O2310      C2324   1.289       .  A
O2311      C2316   1.289       .  A
O2312      C2315   1.263       .  A
O2313      C2325   1.291       .  A
O2314      C2327   1.267       .  A
C2315      O2320   1.293       .  A
C2316      C2329   1.505       .  S
O2318      C2321   1.287       .  A
O2319      C2321   1.266       .  A
O2322      C2327   1.292       .  A
O2323      C2325   1.270       .  A
C2324      O2326   1.268       .  A
N2328      C2332   1.361       .  A
N2328      C2329   1.351       .  A
N2328      C2421   1.418       .  S
C2329      C2330   1.386       .  A
C2330      C2331   1.392       .  A
C2330      H2333   1.082       .  S
C2331      C2332   1.385       .  A
C2331      H2334   1.082       .  S
C2332      C2373   1.496       .  S
N2335      C2339   1.364       .  A
N2335      C2336   1.353       .  A
N2335      C2401   1.416       .  S
C2336      C2337   1.386       .  A
C2336      C2370   1.513       .  S
C2337      C2338   1.393       .  A
C2338      C2339   1.386       .  A
C2338      H2341   1.082       .  S
N2342      C2346   1.372       .  A
N2342      C2343   1.358       .  A
N2342      C2381   1.435       .  S
C2343      C2344   1.382       .  A
C2344      C2345   1.384       .  A
C2344      H2347   1.082       .  S
C2345      C2346   1.385       .  A
C2345      H2348   1.082       .  S
C2349      N2350   1.359       .  A
C2349      N2354   1.353       .  A
C2349      C2410   1.465       .  S
N2350      C2351   1.356       .  A
C2351      N2352   1.355       .  A
C2351      C2390   1.477       .  S
N2352      C3225   1.349       .  A
C2353      N3224   1.351       .  A
C2353      N3226   1.351       .  A
C2353      C2430   1.475       .  S
N2354      C3225   1.354       .  A
Fe2355     O2371   2.130       .  S
Fe2355     O2361   2.036       .  S
Fe2355     O2368   2.050       .  S
Fe2355     O2360   2.162       .  S
Fe2355     O2366   1.945       .  S
Fe2356     O2359   2.150   1_465  S
Fe2356     O2363   2.046   1_465  S
Fe2356     O2372   2.073       .  S
Fe2356     O3238   1.944   1_455  S
Fe2357     O3247   2.042       .  S
Fe2357     O3234   2.175       .  S
Fe2357     O2369   2.162       .  S
Fe2357     O2358   2.040       .  S
Fe2357     O2366   1.949       .  S
O2358      C2365   1.272       .  A
O2359      C2373   1.286       .  A
O2360      C2365   1.290       .  A
O2361      C2364   1.258       .  A
O2362     Fe3229   2.169   1_545  S
O2362      C2374   1.290   1_655  A
O2363      C2376   1.265   1_545  A
C2364      O2369   1.286       .  A
O2366     Fe3228   1.942   1_655  S
O2367      C2370   1.294       .  A
O2371      C3248   1.281       .  A
O2372      C2374   1.277   1_565  A
C2373      O2375   1.265       .  A
O2375     Fe3229   2.038   1_545  S
C2376      O3243   1.281       .  A
C2377      C2378   1.394   1_556  A
C2377      C2382   1.370       .  A
C2377      H2387   1.083       .  S
C2378      C2379   1.411       .  A
C2379      C2380   1.404       .  A
C2380      C2381   1.404   1_554  A
C2380      H2385   1.083       .  S
C2381      C2382   1.404       .  A
C2382      F2386   1.348       .  S
C2383      C2388   1.402       .  A
C2383      C2392   1.403       .  A
C2388      C2389   1.379       .  A
C2388      F2393   1.359       .  S
C2389      C2390   1.406       .  A
C2389      H2394   1.079       .  S
C2390      C2391   1.410       .  A
C2391      C2392   1.396       .  A
C2391      F2395   1.357       .  S
C2397      C2398   1.403       .  A
C2397      C2402   1.395       .  A
C2397      H2407   1.083       .  S
C2398      C2399   1.407       .  A
C2398      C2403   1.462       .  S
C2399      C2400   1.378       .  A
C2399      F2404   1.358       .  S
C2400      C2401   1.391       .  A
C2400      H2405   1.081       .  S
C2401      C2402   1.401       .  A
C2402      F2406   1.356       .  S
C2403      C2408   1.406       .  A
C2403      C2412   1.394       .  A
C2408      C2409   1.397       .  A
C2408      F2413   1.357       .  S
C2409      C2410   1.403       .  A
C2409      H2414   1.080       .  S
C2410      C2411   1.408       .  A
C2411      C2412   1.378       .  A
C2411      F2415   1.351       .  S
C2412      H2416   1.084       .  S
C2417      C2418   1.406       .  A
C2417      C2422   1.384       .  A
C2417      H2427   1.083       .  S
C2418      C2419   1.406       .  A
C2418      C2423   1.467       .  S
C2419      C2420   1.392       .  A
C2419      F2424   1.357       .  S
C2420      C2421   1.399       .  A
C2420      H2425   1.083       .  S
C2421      C2422   1.395       .  A
C2422      F2426   1.357       .  S
C2423      C2428   1.399       .  A
C2423      C2432   1.405       .  A
C2428      C2429   1.383       .  A
C2428      F2433   1.359       .  S
C2429      C2430   1.409       .  A
C2429      H2434   1.079       .  S
C2430      C2431   1.406       .  A
C2431      C2432   1.393       .  A
C2431      F2435   1.355       .  S
C2432      H2436   1.083       .  S
C2437      C2438   1.402       .  A
C2437      C3314   1.394       .  A
C2437      H2447   1.084       .  S
C2438      C3311   1.402       .  A
C2438      C2443   1.465       .  S
C2439      C3310   1.402       .  A
C2439      C2440   1.394       .  A
C2439      F2444   1.357       .  S
C2440      C2441   1.404       .  A
C2440      H2445   1.084       .  S
C2441      C2442   1.400       .  A
C2442      C3309   1.397       .  A
C2442      F3318   1.353       .  S
C2443      C2448   1.401       .  A
C2443      C2452   1.403       .  A
F2446      C3314   1.351       .  S
C2448      C2449   1.400       .  A
C2448      F2453   1.357       .  S
C2449      C2450   1.405       .  A
C2449      H2454   1.083       .  S
C2450      C2451   1.399       .  A
C2451      C2452   1.390       .  A
C2451      F2455   1.357       .  S
C2452      H3328   1.084       .  S
H2456      C3324   1.084       .  S
C2457      C2458   1.404       .  A
C2457      C2462   1.401       .  A
C2457      H2467   1.083       .  S
C2458      C2459   1.407       .  A
C2458      C2463   1.474       .  S
C2459      C2460   1.390       .  A
C2459      F2464   1.359       .  S
C2460      C2461   1.400       .  A
C2460      H2465   1.079       .  S
C2461      C2462   1.405       .  A
C2462      F2466   1.357       .  S
C2463      C2468   1.404       .  A
C2463      C2472   1.404       .  A
C2468      C2469   1.393       .  A
C2468      F2473   1.356       .  S
C2469      C2470   1.397       .  A
C2469      H2474   1.077       .  S
C2470      C2471   1.409       .  A
C2471      C2472   1.399       .  A
C2471      F2475   1.358       .  S
C2472      H2476   1.084       .  S
C2477      C2478   1.402   1_554  A
C2477      H2487   1.083       .  S
C2478      C2479   1.406       .  A
C2478      C2483   1.468       .  S
C2480      H2485   1.078   1_554  S
C2481      C2482   1.404       .  A
C2482      F2486   1.357       .  S
C2483      C2488   1.403       .  A
C2483      C2492   1.401       .  A
C2488      C2489   1.392       .  A
C2488      F2493   1.356       .  S
C2489      C2490   1.395       .  A
C2489      H2494   1.076       .  S
C2490      C2491   1.410       .  A
C2491      C2492   1.397       .  A
C2491      F2495   1.356       .  S
C2492      H2496   1.084       .  S
C2497      C2498   1.404       .  A
C2497      C2502   1.389       .  A
C2497      H2507   1.084       .  S
C2498      C2499   1.408       .  A
C2498      C2503   1.469       .  S
C2499      C2500   1.390       .  A
C2499      F2504   1.357       .  S
C2500      C2501   1.398       .  A
C2500      H2505   1.084       .  S
C2501      C2502   1.400       .  A
C2502      F2506   1.357       .  S
C2503      C2508   1.408       .  A
C2503      C2512   1.399       .  A
C2508      C2509   1.387       .  A
C2508      F2513   1.358       .  S
C2509      C2510   1.404       .  A
C2509      H2514   1.081       .  S
C2510      C2511   1.414       .  A
C2511      C2512   1.392       .  A
C2511      F2515   1.355   1_556  S
C2512      H2516   1.083       .  S
C2517      C2518   1.400       .  A
C2517      C2522   1.392       .  A
C2517      H2527   1.083       .  S
C2518      C2519   1.401       .  A
C2518      C2523   1.463       .  S
C2519      C2520   1.384   1_556  A
C2519      F2524   1.358   1_556  S
C2520      C2521   1.402   1_554  A
C2521      C2522   1.413       .  A
C2523      C2528   1.397       .  A
C2523      C2532   1.406       .  A
C2528      C2529   1.384       .  A
C2528      F2533   1.356       .  S
C2529      C2530   1.402       .  A
C2529      H2534   1.079       .  S
C2530      C2531   1.399       .  A
C2531      C2532   1.392       .  A
C2531      F2535   1.357       .  S
C2532      H2536   1.083       .  S
C2537      C2538   1.405       .  A
C2537      C3414   1.394       .  A
C2537      H2547   1.084       .  S
C2538      C2539   1.404       .  A
C2539      C2540   1.389       .  A
C2539      F2544   1.357       .  S
C2540      C2541   1.400       .  A
C2540      H2545   1.082       .  S
C2541      N3102   1.428       .  S
C2541      C3414   1.402       .  A
C2542      C3409   1.392       .  A
C2542      C3413   1.402       .  A
C2542      F2546   1.355   1_565  S
C2543      C2548   1.407       .  A
C2548      C2549   1.389       .  A
C2548      F2553   1.358       .  S
C2549      C2550   1.405       .  A
C2549      H2554   1.081       .  S
C2551      C2552   1.395       .  A
C2551      F2555   1.355       .  S
C2552      H2556   1.083       .  S
C2557      C2558   1.394       .  A
C2557      C2562   1.375   1_455  A
C2558      C2559   1.407   1_455  A
C2559      C2560   1.399       .  A
C2559      F2564   1.357       .  S
C2560      C2561   1.402       .  A
C2560      H2565   1.081       .  S
C2561      C2562   1.402       .  A
C2562      F2566   1.349       .  S
C2563      C2568   1.401       .  A
C2563      C2572   1.399       .  A
C2568      C2569   1.385       .  A
C2568      F2573   1.358       .  S
C2569      C2570   1.408       .  A
C2569      H2574   1.083       .  S
C2570      C2571   1.411       .  A
C2571      C2572   1.391       .  A
C2571      F2575   1.355       .  S
C2572      H2576   1.084       .  S
C2577      C2578   1.405       .  A
C2577      C2582   1.390       .  A
C2577      H2587   1.083       .  S
C2578      C2579   1.402       .  A
C2578      C2583   1.469       .  S
C2579      C2580   1.386       .  A
C2579      F2584   1.358       .  S
C2580      C2581   1.407       .  A
C2580      H2585   1.077       .  S
C2581      C2582   1.406       .  A
C2582      F2586   1.357       .  S
C2583      C2588   1.407       .  A
C2583      C2592   1.403       .  A
C2588      C2589   1.393       .  A
C2588      F2593   1.358       .  S
C2589      C2590   1.399       .  A
C2589      H2594   1.083       .  S
C2590      C2591   1.397       .  A
C2591      C2592   1.384       .  A
C2592      H2596   1.079       .  S
C2597      C2598   1.404       .  A
C2597      C2602   1.392       .  A
C2597      H2607   1.083       .  S
C2598      C2599   1.399       .  A
C2598      C2603   1.458       .  S
C2599      C2600   1.381       .  A
C2599      F2604   1.359       .  S
C2600      C2601   1.396       .  A
C2600      H2605   1.077       .  S
C2601      C2602   1.398       .  A
C2602      F2606   1.357       .  S
C2603      C2608   1.410       .  A
C2603      C2612   1.396       .  A
C2608      C2609   1.384       .  A
C2608      F2613   1.358       .  S
C2609      C2610   1.389       .  A
C2609      H2614   1.072       .  S
C2610      C2611   1.408       .  A
C2611      C2612   1.388       .  A
C2611      F2615   1.357       .  S
C2612      H2616   1.083       .  S
N2617      C2621   1.361       .  A
N2617      C2618   1.351       .  A
N2617      C3037   1.417       .  S
C2618      C2619   1.386       .  A
C2618      C2757   1.506       .  S
C2619      C2620   1.392   1_554  A
C2619      H2622   1.082   1_554  S
C2620      C2621   1.386   1_556  A
C2620      H3059   1.081       .  S
C2621      C2711   1.500   1_554  S
H2623      C3056   1.081       .  S
N2624      C2625   1.350       .  A
N2624      C3026   1.418       .  S
C2625      C2708   1.502       .  S
C2626      H2629   1.082       .  S
C2627      H2630   1.082       .  S
C2628      C2812   1.497       .  S
N2631      C2635   1.371       .  A
N2631      C2632   1.358       .  A
N2631      C2997   1.432       .  S
C2632      C2633   1.381       .  A
C2632      C2801   1.502       .  S
C2633      C2634   1.383       .  A
C2633      H2636   1.081       .  S
C2634      C2635   1.384       .  A
C2634      H2637   1.082       .  S
C2635      C2760   1.500       .  S
C2638      N2639   1.354       .  A
C2638      N2643   1.355       .  A
C2638      C3006   1.477       .  S
N2639      C2640   1.354       .  A
C2640      N2641   1.350       .  A
C2640      C3017   1.466       .  S
N2641      C2642   1.347       .  A
C2642      N2643   1.353       .  A
C2642      C3046   1.449       .  S
Fe2644     O2660   2.164       .  S
Fe2644     O2650   2.015       .  S
Fe2644     O2657   2.035       .  S
Fe2644     O2649   2.167       .  S
Fe2644     O2655   1.952       .  S
Fe2645     O2648   2.151       .  S
Fe2645     O2652   2.050       .  S
Fe2645     O2656   2.164       .  S
Fe2645     O2661   2.053       .  S
Fe2645     O2655   1.948       .  S
Fe2646     O2664   2.049       .  S
Fe2646     O2651   2.181       .  S
Fe2646     O2658   2.184       .  S
Fe2646     O2647   2.052       .  S
Fe2646     O2655   1.951       .  S
O2647      C2654   1.268       .  A
O2648      C2662   1.288       .  A
O2649      C2654   1.289       .  A
O2650      C2653   1.263       .  A
O2651      C2663   1.292       .  A
O2652      C2665   1.267       .  A
C2653      C2726   1.506       .  S
C2653      O2658   1.295       .  A
C2654      C2681   1.511       .  S
O2656      C2659   1.289       .  A
O2657      C2659   1.268       .  A
C2659      C2779   1.506       .  S
O2660      C2665   1.291       .  A
O2661      C2663   1.271       .  A
C2662      C2775   1.503       .  S
C2662      O2664   1.270       .  A
C2663      C2730   1.519       .  S
C2665      C2677   1.509       .  S
N2666      C2670   1.372       .  A
N2666      C2667   1.364       .  A
C2667      C2668   1.385       .  A
C2668      C2669   1.391       .  A
C2668      H2671   1.082       .  S
C2669      C2670   1.386       .  A
C2669      H2672   1.082       .  S
C2670      C2702   1.519       .  S
N2673      C2677   1.372       .  A
N2673      C2674   1.360       .  A
N2673      C2966   1.426       .  S
C2674      C2675   1.382       .  A
C2674      C2712   1.515       .  S
C2675      C2676   1.387       .  A
C2675      H2678   1.079       .  S
C2676      C2677   1.386       .  A
C2676      H2679   1.082       .  S
N2680      C2684   1.365       .  A
N2680      C2681   1.356       .  A
N2680      C2937   1.421       .  S
C2681      C2682   1.386       .  A
C2682      C2683   1.389       .  A
C2682      H2685   1.081       .  S
C2683      C2684   1.385       .  A
C2683      H2686   1.081       .  S
C2684      C2800   1.504       .  S
C2687      N3124   1.359       .  A
C2687      N2692   1.350       .  A
N2688      C3123   1.357       .  A
N2688      C2689   1.353       .  A
C2689      N3126   1.355       .  A
C2689      C2986   1.478       .  S
N2690      C3125   1.355       .  A
N2690      C2691   1.350       .  A
C2691      N2692   1.352       .  A
C2691      C2946   1.477       .  S
Fe2693     O2699   2.056   1_556  S
Fe2693     O3142   2.035       .  S
Fe2693     O2698   2.179   1_556  S
Fe2693     O2704   1.946       .  S
Fe2694     O2697   2.163       .  S
Fe2694     O2701   2.035       .  S
Fe2694     O2705   2.163       .  S
Fe2694     O2710   2.052       .  S
Fe2694     O3140   1.955       .  S
Fe2695     O2713   2.036       .  S
Fe2695     O3136   2.162   1_554  S
Fe2695     O2707   2.161       .  S
Fe2695     O2696   2.049       .  S
Fe2695     O2704   1.944   1_554  S
O2696      C2703   1.272       .  A
O2697      C3147   1.290       .  A
O2698      C2703   1.292       .  A
O2699      C2702   1.269       .  A
O2700     Fe3131   2.170       .  S
O2700      C2712   1.289       .  A
C2702      O2707   1.288       .  A
C2703      C2716   1.511       .  S
O2704     Fe3130   1.956       .  S
O2705      C2708   1.289       .  A
O2706     Fe3129   2.041       .  S
O2706      C2708   1.266       .  A
O2709      C3150   1.295   1_545  A
O2710      C2712   1.269       .  A
C2711      O3133   1.290       .  A
C2711      O2713   1.269   1_556  A
C2714      C2733   1.511       .  S
C2714      O3145   1.299   1_565  A
N2715      C2716   1.360       .  A
C2716      C2717   1.388       .  A
C2717      C2718   1.387       .  A
C2717      H2720   1.082       .  S
C2718      H2721   1.082       .  S
C2719      C2751   1.499       .  S
N2722      C2726   1.378       .  A
N2722      C2723   1.368       .  A
N2722      C2897   1.437       .  S
C2723      C2724   1.389       .  A
C2723      C2761   1.524       .  S
C2724      C2725   1.385       .  A
C2724      H2727   1.082       .  S
C2725      C2726   1.379       .  A
C2725      H2728   1.082       .  S
N2729      C2733   1.376       .  A
N2729      C2730   1.363       .  A
N2729      C2886   1.432       .  S
C2730      C2731   1.387       .  A
C2731      C2732   1.388       .  A
C2731      H2734   1.082       .  S
C2732      C2733   1.381       .  A
C2732      H2735   1.082       .  S
C2736      N2737   1.359       .  A
C2736      N2741   1.357       .  A
C2736      C2906   1.469       .  S
N2737      C2738   1.354       .  A
C2738      N2739   1.355       .  A
C2738      C2877   1.462       .  S
N2739      C2740   1.353       .  A
C2740      N2741   1.359       .  A
C2740      C2926   1.466       .  S
Fe2742     O2758   2.156       .  S
Fe2742     O2748   2.024       .  S
Fe2742     O2755   2.044       .  S
Fe2742     O2747   2.168       .  S
Fe2742     O2753   1.943       .  S
Fe2743     O2746   2.156       .  S
Fe2743     O2750   2.043       .  S
Fe2743     O2754   2.165       .  S
Fe2743     O2759   2.051       .  S
Fe2743     O2753   1.940       .  S
Fe2744     O2762   2.043       .  S
Fe2744     O2749   2.185       .  S
Fe2744     O2756   2.171       .  S
Fe2744     O2745   2.042       .  S
Fe2744     O2753   1.951       .  S
O2745      C2752   1.267       .  A
O2746      C2760   1.291       .  A
O2747      C2752   1.290       .  A
O2748      C2751   1.263       .  A
O2749      C2761   1.291       .  A
O2750      C2763   1.267       .  A
C2751      O2756   1.291       .  A
C2752      C2765   1.505       .  S
O2754      C2757   1.289       .  A
O2755      C2757   1.267       .  A
O2758      C2763   1.291       .  A
O2759      C2761   1.270       .  A
C2760      O2762   1.266       .  A
C2763      C3218   1.501   1_554  S
N2764      C2768   1.360       .  A
N2764      C2765   1.350       .  A
N2764      C2857   1.416       .  S
C2765      C2766   1.387       .  A
C2766      C2767   1.392       .  A
C2766      H2769   1.082       .  S
C2767      C2768   1.384       .  A
C2767      H2770   1.082       .  S
C2768      C2809   1.496       .  S
N2771      C2775   1.362       .  A
N2771      C2772   1.352       .  A
N2771      C2837   1.416       .  S
C2772      C2773   1.386       .  A
C2772      C2806   1.509       .  S
C2773      C2774   1.391       .  A
C2774      C2775   1.385       .  A
C2774      H2777   1.082       .  S
N2778      C2782   1.370       .  A
N2778      C2779   1.357       .  A
N2778      C2817   1.429       .  S
C2779      C2780   1.383       .  A
C2780      C2781   1.387       .  A
C2780      H2783   1.082       .  S
C2781      C2782   1.386       .  A
C2781      H2784   1.082       .  S
C2782      C3199   1.504       .  S
C2785      N2786   1.359   1_545  A
C2785      N2790   1.355       .  A
C2785      C2846   1.464   1_545  S
N2786      C2787   1.355       .  A
C2787      N2788   1.357   1_565  A
C2787      C2826   1.479       .  S
C2789      C2866   1.475       .  S
Fe2791     O2807   2.133       .  S
Fe2791     O2797   2.041       .  S
Fe2791     O2804   2.044       .  S
Fe2791     O2796   2.162       .  S
Fe2791     O2802   1.946       .  S
Fe2792     O2795   2.146   1_455  S
Fe2792     O2799   2.048   1_455  S
Fe2792     O2808   2.074       .  S
Fe2793     O2805   2.157       .  S
Fe2793     O2794   2.045       .  S
Fe2793     O2802   1.950       .  S
O2794      C2801   1.272       .  A
O2795      C2809   1.286       .  A
O2796      C2801   1.289       .  A
O2797      C2800   1.261       .  A
O2798      C2810   1.291   1_655  A
O2799      C2812   1.265       .  A
C2800      O2805   1.285       .  A
O2803      C2806   1.293       .  A
O2808      C2810   1.277       .  A
C2809      O2811   1.267       .  A
C2813      C2814   1.396       .  A
C2813      C2818   1.375       .  A
C2813      H2823   1.083       .  S
C2814      C2815   1.409       .  A
C2814      C3255   1.468       .  S
C2815      C2816   1.399       .  A
C2815      F3256   1.357       .  S
C2816      C2817   1.402       .  A
C2816      H2821   1.083       .  S
C2817      C2818   1.403       .  A
C2818      F2822   1.351       .  S
C2819      C2824   1.400       .  A
C2819      C2828   1.403       .  A
C2819      C3250   1.465       .  S
F2820      C3251   1.357       .  S
C2824      C2825   1.376       .  A
C2824      F2829   1.360       .  S
C2825      C2826   1.405       .  A
C2825      H2830   1.078       .  S
C2826      C2827   1.412       .  A
C2827      C2828   1.402       .  A
C2827      F2831   1.356       .  S
C2828      H3268   1.083       .  S
H2832      C3264   1.083       .  S
C2833      C2834   1.403       .  A
C2833      C2838   1.395       .  A
C2833      H2843   1.083       .  S
C2834      C2835   1.407       .  A
C2834      C2839   1.461       .  S
C2835      C2836   1.379       .  A
C2835      F2840   1.358       .  S
C2836      C2837   1.390       .  A
C2836      H2841   1.079       .  S
C2837      C2838   1.402       .  A
C2838      F2842   1.356       .  S
C2839      C2844   1.407   1_565  A
C2839      C2848   1.393       .  A
C2844      C2845   1.398       .  A
C2844      F2849   1.357       .  S
C2845      C2846   1.400   1_545  A
C2845      H2850   1.080       .  S
C2846      C2847   1.408       .  A
C2847      C2848   1.377       .  A
C2847      F2851   1.351       .  S
C2848      H2852   1.084       .  S
C2853      C2854   1.408       .  A
C2853      C2858   1.382       .  A
C2853      H2863   1.083       .  S
C2854      C2855   1.405       .  A
C2854      C2859   1.467       .  S
C2855      C2856   1.392       .  A
C2855      F2860   1.357       .  S
C2856      C2857   1.399       .  A
C2856      H2861   1.083       .  S
C2857      C2858   1.392       .  A
C2858      F2862   1.358       .  S
C2859      C2864   1.398       .  A
C2859      C2868   1.407       .  A
C2864      C2865   1.379       .  A
C2864      F2869   1.359       .  S
C2865      C2866   1.407       .  A
C2865      H2870   1.076       .  S
C2866      C2867   1.406       .  A
C2867      C2868   1.396       .  A
C2867      F2871   1.354       .  S
C2868      H2872   1.083       .  S
C2873      C2874   1.403       .  A
C2873      H2883   1.084   1_545  S
C2874      C2879   1.471       .  S
C2875      C2876   1.396       .  A
C2875      F2880   1.358       .  S
C2876      C2877   1.404       .  A
C2876      H2881   1.084       .  S
C2877      C2878   1.398       .  A
C2879      C2884   1.402       .  A
C2879      C2888   1.404   1_545  A
C2884      C2885   1.401       .  A
C2884      F2889   1.356       .  S
C2885      C2886   1.406   1_545  A
C2885      H2890   1.083       .  S
C2886      C2887   1.401       .  A
C2887      C2888   1.391       .  A
C2887      F2891   1.357       .  S
C2893      C2894   1.404       .  A
C2893      C2898   1.402       .  A
C2893      H2903   1.083       .  S
C2894      C2895   1.406       .  A
C2894      C2899   1.475       .  S
C2895      C2896   1.390       .  A
C2895      F2900   1.359       .  S
C2896      C2897   1.400       .  A
C2896      H2901   1.078       .  S
C2897      C2898   1.406       .  A
C2898      F2902   1.357       .  S
C2899      C2904   1.404       .  A
C2899      C2908   1.404       .  A
C2904      C2905   1.395       .  A
C2904      F2909   1.357       .  S
C2905      C2906   1.399       .  A
C2905      H2910   1.080       .  S
C2906      C2907   1.408       .  A
C2907      C2908   1.398       .  A
C2907      F2911   1.358       .  S
C2908      H2912   1.084       .  S
C2913      C2914   1.403       .  A
C2913      C3354   1.399       .  A
C2913      H2923   1.083       .  S
C2914      C2915   1.408       .  A
C2914      C2919   1.470       .  S
C2916      H2921   1.078       .  S
C2917      C2918   1.402       .  A
C2918      C3349   1.397       .  A
C2918      F2922   1.356       .  S
C2919      C2924   1.405       .  A
C2919      C2928   1.402       .  A
C2924      C2925   1.394       .  A
C2924      F2929   1.357       .  S
C2925      C2926   1.395       .  A
C2925      H2930   1.077       .  S
C2926      C2927   1.408       .  A
C2927      C2928   1.396       .  A
C2927      F2931   1.358       .  S
C2928      H2932   1.084       .  S
C2933      C2934   1.404       .  A
C2933      C2938   1.389       .  A
C2933      H2943   1.083       .  S
C2934      C2935   1.409       .  A
C2934      C2939   1.470       .  S
C2935      C2936   1.389       .  A
C2935      F2940   1.358       .  S
C2936      C2937   1.396       .  A
C2936      H2941   1.084       .  S
C2937      C2938   1.400       .  A
C2938      F2942   1.357       .  S
C2939      C2944   1.408       .  A
C2939      C2948   1.400       .  A
C2944      C2945   1.386       .  A
C2944      F2949   1.358       .  S
C2945      C2946   1.405       .  A
C2945      H2950   1.081       .  S
C2946      C2947   1.413       .  A
C2947      C2948   1.391       .  A
C2947      F2951   1.354       .  S
C2948      H2952   1.083       .  S
C2953      C2954   1.400       .  A
C2953      C2958   1.391       .  A
C2953      H2963   1.083       .  S
C2954      C2955   1.404       .  A
C2954      C2959   1.466       .  S
C2955      C2956   1.385       .  A
C2955      F2960   1.358       .  S
C2956      C2957   1.401       .  A
C2956      H3397   1.078       .  S
C2957      C2958   1.412       .  A
C2959      C2964   1.399       .  A
C2959      C2968   1.406       .  A
H2961      C3392   1.078       .  S
C2964      C2965   1.386       .  A
C2964      F2969   1.358       .  S
C2965      C2966   1.404       .  A
C2965      H2970   1.079       .  S
C2966      C2967   1.399       .  A
C2967      C2968   1.391       .  A
C2967      F2971   1.356       .  S
C2968      H2972   1.083       .  S
C2973      C2974   1.405       .  A
C2973      H2983   1.083       .  S
C2974      C2975   1.407       .  A
C2975      C2976   1.389       .  A
C2975      F2980   1.357       .  S
C2976      C2977   1.398       .  A
C2976      H2981   1.082       .  S
C2978      F2982   1.356       .  S
C2979      C2984   1.406       .  A
C2984      C2985   1.386       .  A
C2984      F2989   1.358       .  S
C2985      C2986   1.403       .  A
C2985      H2990   1.081       .  S
C2987      C2988   1.394       .  A
C2987      F2991   1.355       .  S
C2988      H2992   1.083       .  S
C2993      C2994   1.395       .  A
C2993      C2998   1.379   1_455  A
C2994      C2995   1.409   1_455  A
C2995      C2996   1.400       .  A
C2995      F3000   1.358       .  S
C2996      C2997   1.402       .  A
C2996      H3001   1.082       .  S
C2997      C2998   1.403       .  A
C2998      F3002   1.349       .  S
C2999      C3004   1.403       .  A
C2999      C3008   1.400       .  A
C3004      C3005   1.385       .  A
C3004      F3009   1.358       .  S
C3005      C3006   1.407       .  A
C3005      H3010   1.083       .  S
C3006      C3007   1.411       .  A
C3007      C3008   1.393       .  A
C3007      F3011   1.356       .  S
C3008      H3012   1.083       .  S
C3013      C3014   1.406       .  A
C3013      C3018   1.389       .  A
C3013      H3023   1.083       .  S
C3014      C3015   1.401       .  A
C3014      C3019   1.466       .  S
C3015      C3016   1.386       .  A
C3015      F3020   1.358       .  S
C3016      C3017   1.407       .  A
C3016      H3021   1.078       .  S
C3017      C3018   1.404       .  A
C3018      F3022   1.357       .  S
C3019      C3024   1.406       .  A
C3019      C3028   1.405       .  A
C3024      C3025   1.389       .  A
C3024      F3029   1.358       .  S
C3025      C3026   1.397       .  A
C3025      H3030   1.083       .  S
C3026      C3027   1.396       .  A
C3027      C3028   1.385       .  A
C3028      H3032   1.082       .  S
C3033      C3034   1.405       .  A
C3033      C3038   1.389       .  A
C3033      H3043   1.083       .  S
C3034      C3035   1.400       .  A
C3034      C3039   1.458       .  S
C3035      C3036   1.382       .  A
C3035      F3040   1.358       .  S
C3036      C3037   1.396       .  A
C3036      H3041   1.077       .  S
C3037      C3038   1.397       .  A
C3038      F3042   1.357       .  S
C3039      C3044   1.409       .  A
C3039      C3048   1.396       .  A
C3044      C3045   1.385       .  A
C3044      F3049   1.358       .  S
C3045      C3046   1.391       .  A
C3045      H3050   1.072       .  S
C3046      C3047   1.407       .  A
C3047      C3048   1.386       .  A
C3047      F3051   1.356       .  S
C3048      H3052   1.083       .  S
N3053      C3057   1.363       .  A
N3053      C3054   1.353       .  A
N3053      C3473   1.416       .  S
C3054      C3055   1.386       .  A
C3054      C3193   1.511       .  S
C3055      C3056   1.392       .  A
C3055      H3058   1.082       .  S
C3056      C3057   1.386       .  A
C3057      C3147   1.506       .  S
N3060      C3061   1.350       .  A
N3060      C3462   1.417       .  S
C3061      C3144   1.501       .  S
C3062      H3065   1.082       .  S
C3063      H3066   1.082       .  S
C3064      C3248   1.496       .  S
N3067      C3071   1.371       .  A
N3067      C3068   1.357       .  A
N3067      C3433   1.433       .  S
C3068      C3069   1.381       .  A
C3068      C3237   1.501       .  S
C3069      C3070   1.383       .  A
C3069      H3072   1.082       .  S
C3070      C3071   1.385       .  A
C3070      H3073   1.082       .  S
C3071      C3196   1.501       .  S
C3074      N3075   1.355       .  A
C3074      N3079   1.358       .  A
C3074      C3442   1.478       .  S
N3075      C3076   1.354       .  A
C3076      N3077   1.350       .  A
C3076      C3453   1.472       .  S
N3077      C3078   1.348       .  A
C3078      N3079   1.355       .  A
C3078      C3482   1.450       .  S
Fe3080     O3096   2.160       .  S
Fe3080     O3086   2.017       .  S
Fe3080     O3093   2.033       .  S
Fe3080     O3085   2.174       .  S
Fe3080     O3091   1.945       .  S
Fe3081     O3084   2.161       .  S
Fe3081     O3088   2.046       .  S
Fe3081     O3092   2.163       .  S
Fe3081     O3097   2.049       .  S
Fe3081     O3091   1.944       .  S
Fe3082     O3100   2.048       .  S
Fe3082     O3087   2.180       .  S
Fe3082     O3094   2.182       .  S
Fe3082     O3083   2.055       .  S
Fe3082     O3091   1.947       .  S
O3083      C3090   1.268       .  A
O3084      C3098   1.289       .  A
O3085      C3090   1.291       .  A
O3086      C3089   1.260       .  A
O3087      C3099   1.292       .  A
O3088      C3101   1.267       .  A
C3089      C3162   1.508       .  S
C3089      O3094   1.293       .  A
C3090      C3117   1.512       .  S
O3092      C3095   1.290       .  A
O3093      C3095   1.269       .  A
C3095      C3215   1.505       .  S
O3096      C3101   1.290       .  A
O3097      C3099   1.270       .  A
C3098      C3211   1.508       .  S
C3098      O3100   1.268       .  A
C3099      C3166   1.513       .  S
C3101      C3113   1.506       .  S
N3102      C3106   1.374       .  A
N3102      C3103   1.365       .  A
C3103      C3104   1.384       .  A
C3104      C3105   1.387       .  A
C3104      H3107   1.082       .  S
C3105      C3106   1.385       .  A
C3105      H3108   1.082       .  S
C3106      C3138   1.514       .  S
N3109      C3113   1.368       .  A
N3109      C3110   1.357       .  A
N3109      C3402   1.422       .  S
C3110      C3111   1.383       .  A
C3110      C3148   1.514       .  S
C3111      C3112   1.389       .  A
C3111      H3114   1.080       .  S
C3112      C3113   1.386       .  A
C3112      H3115   1.082       .  S
N3116      C3120   1.366       .  A
N3116      C3117   1.360       .  A
N3116      C3373   1.423       .  S
C3117      C3118   1.384       .  A
C3118      C3119   1.387       .  A
C3118      H3121   1.081       .  S
C3119      C3120   1.385       .  A
C3119      H3122   1.081       .  S
C3120      C3236   1.504       .  S
C3123      N3128   1.352   1_554  A
N3124      C3125   1.356       .  A
C3125      C3422   1.478       .  S
N3126      C3127   1.351       .  A
C3127      N3128   1.355   1_554  A
C3127      C3382   1.478   1_554  S
Fe3129     O3135   2.048       .  S
Fe3129     O3134   2.188       .  S
Fe3129     O3140   1.947       .  S
Fe3130     O3133   2.157       .  S
Fe3130     O3137   2.032       .  S
Fe3130     O3141   2.163       .  S
Fe3130     O3146   2.053       .  S
Fe3131     O3149   2.039       .  S
Fe3131     O3143   2.167       .  S
Fe3131     O3132   2.051       .  S
Fe3131     O3140   1.941       .  S
O3132      C3139   1.271       .  A
O3134      C3139   1.293       .  A
O3135      C3138   1.266       .  A
O3136      C3148   1.286       .  A
C3138      O3143   1.291       .  A
C3139      C3152   1.520       .  S
O3141      C3144   1.290       .  A
O3142      C3144   1.265       .  A
O3146      C3148   1.269       .  A
C3147      O3149   1.269       .  A
C3150      C3169   1.505       .  S
N3151      C3152   1.361       .  A
C3152      C3153   1.389       .  A
C3153      C3154   1.389       .  A
C3153      H3156   1.082       .  S
C3154      H3157   1.082       .  S
C3155      C3187   1.507       .  S
N3158      C3162   1.376       .  A
N3158      C3159   1.369       .  A
N3158      C3333   1.435       .  S
C3159      C3160   1.390       .  A
C3159      C3197   1.530       .  S
C3160      C3161   1.387       .  A
C3160      H3163   1.082       .  S
C3161      C3162   1.379       .  A
C3161      H3164   1.082       .  S
N3165      C3169   1.370       .  A
N3165      C3166   1.358       .  A
N3165      C3322   1.427       .  S
C3166      C3167   1.388       .  A
C3167      C3168   1.389       .  A
C3167      H3170   1.082       .  S
C3168      C3169   1.380       .  A
C3168      H3171   1.082       .  S
C3172      N3173   1.359       .  A
C3172      N3177   1.355       .  A
C3172      C3342   1.468       .  S
N3173      C3174   1.354       .  A
C3174      N3175   1.356       .  A
C3174      C3313   1.462       .  S
N3175      C3176   1.353       .  A
C3176      N3177   1.357       .  A
C3176      C3362   1.464       .  S
Fe3178     O3194   2.157       .  S
Fe3178     O3184   2.025       .  S
Fe3178     O3191   2.049       .  S
Fe3178     O3183   2.161       .  S
Fe3178     O3189   1.950       .  S
Fe3179     O3182   2.153       .  S
Fe3179     O3186   2.047       .  S
Fe3179     O3190   2.168       .  S
Fe3179     O3195   2.058       .  S
Fe3179     O3189   1.943       .  S
Fe3180     O3198   2.046       .  S
Fe3180     O3185   2.193       .  S
Fe3180     O3192   2.180       .  S
Fe3180     O3181   2.039       .  S
Fe3180     O3189   1.953       .  S
O3181      C3188   1.266       .  A
O3182      C3196   1.291       .  A
O3183      C3188   1.288       .  A
O3184      C3187   1.263       .  A
O3185      C3197   1.294       .  A
O3186      C3199   1.268       .  A
C3187      O3192   1.293       .  A
C3188      C3201   1.504       .  S
O3190      C3193   1.289       .  A
O3191      C3193   1.268       .  A
O3194      C3199   1.290       .  A
O3195      C3197   1.273       .  A
C3196      O3198   1.266       .  A
N3200      C3204   1.359       .  A
N3200      C3201   1.349       .  A
N3200      C3293   1.415       .  S
C3201      C3202   1.387       .  A
C3202      C3203   1.393       .  A
C3202      H3205   1.082       .  S
C3203      C3204   1.384       .  A
C3203      H3206   1.082       .  S
C3204      C3245   1.496       .  S
N3207      C3211   1.364       .  A
N3207      C3208   1.355       .  A
N3207      C3273   1.415       .  S
C3208      C3209   1.387       .  A
C3208      C3242   1.517       .  S
C3209      C3210   1.394       .  A
C3210      C3211   1.385       .  A
C3210      H3213   1.082       .  S
N3214      C3218   1.371       .  A
N3214      C3215   1.358       .  A
N3214      C3253   1.434       .  S
C3215      C3216   1.383       .  A
C3216      C3217   1.385       .  A
C3216      H3219   1.082       .  S
C3217      C3218   1.385       .  A
C3217      H3220   1.082       .  S
C3221      N3222   1.356   1_545  A
C3221      N3226   1.351       .  A
C3221      C3282   1.464   1_545  S
N3222      C3223   1.357       .  A
C3223      N3224   1.357   1_565  A
C3223      C3262   1.477       .  S
C3225      C3302   1.473       .  S
Fe3227     O3243   2.126       .  S
Fe3227     O3233   2.048       .  S
Fe3227     O3240   2.051       .  S
Fe3227     O3232   2.161       .  S
Fe3227     O3238   1.944       .  S
Fe3228     O3231   2.144   1_455  S
Fe3228     O3235   2.051   1_455  S
Fe3228     O3244   2.070       .  S
Fe3229     O3241   2.150       .  S
Fe3229     O3230   2.043       .  S
Fe3229     O3238   1.948       .  S
O3230      C3237   1.273       .  A
O3231      C3245   1.284       .  A
O3232      C3237   1.290       .  A
O3233      C3236   1.260       .  A
O3234      C3246   1.292   1_655  A
O3235      C3248   1.267       .  A
C3236      O3241   1.283       .  A
O3239      C3242   1.293       .  A
O3244      C3246   1.276       .  A
C3245      O3247   1.267       .  A
C3249      C3250   1.394   1_556  A
C3249      C3254   1.365       .  A
C3249      H3259   1.085       .  S
C3250      C3251   1.407       .  A
C3251      C3252   1.407       .  A
C3252      C3253   1.408   1_554  A
C3252      H3257   1.082       .  S
C3253      C3254   1.402       .  A
C3254      F3258   1.348       .  S
C3255      C3260   1.402       .  A
C3255      C3264   1.402       .  A
C3260      C3261   1.383       .  A
C3260      F3265   1.359       .  S
C3261      C3262   1.406       .  A
C3261      H3266   1.079       .  S
C3262      C3263   1.410       .  A
C3263      C3264   1.393       .  A
C3263      F3267   1.357       .  S
C3269      C3270   1.400       .  A
C3269      C3274   1.391       .  A
C3269      H3279   1.084       .  S
C3270      C3271   1.403       .  A
C3270      C3275   1.451       .  S
C3271      C3272   1.380       .  A
C3271      F3276   1.358       .  S
C3272      C3273   1.393       .  A
C3272      H3277   1.080       .  S
C3273      C3274   1.401       .  A
C3274      F3278   1.356       .  S
C3275      C3280   1.403       .  A
C3275      C3284   1.391       .  A
C3280      C3281   1.392   1_565  A
C3280      F3285   1.358   1_565  S
C3281      C3282   1.402   1_545  A
C3281      H3286   1.080       .  S
C3282      C3283   1.411       .  A
C3283      C3284   1.381       .  A
C3283      F3287   1.352       .  S
C3284      H3288   1.084       .  S
C3289      C3290   1.407       .  A
C3289      C3294   1.382       .  A
C3289      H3299   1.083       .  S
C3290      C3291   1.403       .  A
C3290      C3295   1.462       .  S
C3291      C3292   1.392       .  A
C3291      F3296   1.357       .  S
C3292      C3293   1.400       .  A
C3292      H3297   1.083       .  S
C3293      C3294   1.393       .  A
C3294      F3298   1.358       .  S
C3295      C3300   1.397       .  A
C3295      C3304   1.405       .  A
C3300      C3301   1.380       .  A
C3300      F3305   1.359       .  S
C3301      C3302   1.407       .  A
C3301      H3306   1.077       .  S
C3302      C3303   1.405       .  A
C3303      C3304   1.396       .  A
C3303      F3307   1.354       .  S
C3304      H3308   1.083       .  S
C3309      C3310   1.403       .  A
C3309      H3319   1.084   1_545  S
C3310      C3315   1.467       .  S
C3311      C3312   1.396       .  A
C3311      F3316   1.358       .  S
C3312      C3313   1.404       .  A
C3312      H3317   1.084       .  S
C3313      C3314   1.397       .  A
C3315      C3320   1.402       .  A
C3315      C3324   1.405       .  A
C3320      C3321   1.398   1_545  A
C3320      F3325   1.357       .  S
C3321      C3322   1.402       .  A
C3321      H3326   1.083       .  S
C3322      C3323   1.398       .  A
C3323      C3324   1.393   1_565  A
C3323      F3327   1.357       .  S
C3329      C3330   1.402       .  A
C3329      C3334   1.398       .  A
C3329      H3339   1.083       .  S
C3330      C3331   1.406       .  A
C3330      C3335   1.470       .  S
C3331      C3332   1.391       .  A
C3331      F3336   1.359       .  S
C3332      C3333   1.402       .  A
C3332      H3337   1.080       .  S
C3333      C3334   1.403       .  A
C3334      F3338   1.357       .  S
C3335      C3340   1.403       .  A
C3335      C3344   1.402       .  A
C3340      C3341   1.390       .  A
C3340      F3345   1.355       .  S
C3341      C3342   1.397       .  A
C3341      H3346   1.079       .  S
C3342      C3343   1.411       .  A
C3343      C3344   1.399       .  A
C3343      F3347   1.358       .  S
C3344      H3348   1.083       .  S
C3349      C3350   1.402   1_554  A
C3349      H3359   1.083       .  S
C3350      C3351   1.406       .  A
C3350      C3355   1.466       .  S
C3352      H3357   1.078   1_554  S
C3353      C3354   1.404       .  A
C3354      F3358   1.357       .  S
C3355      C3360   1.403       .  A
C3355      C3364   1.400       .  A
C3360      C3361   1.392       .  A
C3360      F3365   1.357       .  S
C3361      C3362   1.395       .  A
C3361      H3366   1.077       .  S
C3362      C3363   1.410       .  A
C3363      C3364   1.397       .  A
C3363      F3367   1.358       .  S
C3364      H3368   1.084       .  S
C3369      C3370   1.403       .  A
C3369      C3374   1.386       .  A
C3369      H3379   1.084       .  S
C3370      C3371   1.405       .  A
C3370      C3375   1.467       .  S
C3371      C3372   1.393       .  A
C3371      F3376   1.358       .  S
C3372      C3373   1.401       .  A
C3372      H3377   1.084       .  S
C3373      C3374   1.399       .  A
C3374      F3378   1.357       .  S
C3375      C3380   1.407       .  A
C3375      C3384   1.398       .  A
C3380      C3381   1.385       .  A
C3380      F3385   1.359       .  S
C3381      C3382   1.403       .  A
C3381      H3386   1.081       .  S
C3382      C3383   1.415       .  A
C3383      C3384   1.396       .  A
C3383      F3387   1.354   1_556  S
C3384      H3388   1.083       .  S
C3389      C3390   1.398       .  A
C3389      C3394   1.390       .  A
C3389      H3399   1.083       .  S
C3390      C3391   1.403       .  A
C3390      C3395   1.464       .  S
C3391      C3392   1.386   1_556  A
C3391      F3396   1.358   1_556  S
C3392      C3393   1.403   1_554  A
C3393      C3394   1.413       .  A
C3395      C3400   1.399       .  A
C3395      C3404   1.406       .  A
C3400      C3401   1.384       .  A
C3400      F3405   1.357       .  S
C3401      C3402   1.400       .  A
C3401      H3406   1.079       .  S
C3402      C3403   1.399       .  A
C3403      C3404   1.392       .  A
C3403      F3407   1.357       .  S
C3404      H3408   1.083       .  S
C3409      C3410   1.402       .  A
C3409      H3419   1.084       .  S
C3410      C3411   1.403       .  A
C3411      C3412   1.384       .  A
C3411      F3416   1.356       .  S
C3412      C3413   1.398       .  A
C3412      H3417   1.081       .  S
C3414      F3418   1.356       .  S
C3415      C3420   1.406       .  A
C3420      C3421   1.388       .  A
C3420      F3425   1.358       .  S
C3421      C3422   1.405       .  A
C3421      H3426   1.082       .  S
C3423      C3424   1.390       .  A
C3423      F3427   1.353       .  S
C3424      H3428   1.084       .  S
C3429      C3430   1.393       .  A
C3429      C3434   1.377   1_455  A
C3430      C3431   1.409   1_455  A
C3431      C3432   1.403       .  A
C3431      F3436   1.357       .  S
C3432      C3433   1.403       .  A
C3432      H3437   1.081       .  S
C3433      C3434   1.403       .  A
C3434      F3438   1.347       .  S
C3435      C3440   1.404       .  A
C3435      C3444   1.400       .  A
C3440      C3441   1.388       .  A
C3440      F3445   1.358       .  S
C3441      C3442   1.408       .  A
C3441      H3446   1.083       .  S
C3442      C3443   1.412       .  A
C3443      C3444   1.392       .  A
C3443      F3447   1.356       .  S
C3444      H3448   1.083       .  S
C3449      C3450   1.404       .  A
C3449      C3454   1.388       .  A
C3449      H3459   1.083       .  S
C3450      C3451   1.402       .  A
C3450      C3455   1.467       .  S
C3451      C3452   1.388       .  A
C3451      F3456   1.358       .  S
C3452      C3453   1.409       .  A
C3452      H3457   1.079       .  S
C3453      C3454   1.406       .  A
C3454      F3458   1.357       .  S
C3455      C3460   1.408       .  A
C3455      C3464   1.404       .  A
C3460      C3461   1.391       .  A
C3460      F3465   1.358       .  S
C3461      C3462   1.397       .  A
C3461      H3466   1.083       .  S
C3462      C3463   1.396       .  A
C3463      C3464   1.383       .  A
C3464      H3468   1.081       .  S
C3469      C3470   1.405       .  A
C3469      C3474   1.388       .  A
C3469      H3479   1.083       .  S
C3470      C3471   1.399       .  A
C3470      C3475   1.456       .  S
C3471      C3472   1.383       .  A
C3471      F3476   1.358       .  S
C3472      C3473   1.397       .  A
C3472      H3477   1.078       .  S
C3473      C3474   1.396       .  A
C3474      F3478   1.357       .  S
C3475      C3480   1.410       .  A
C3475      C3484   1.396       .  A
C3480      C3481   1.386       .  A
C3480      F3485   1.358       .  S
C3481      C3482   1.391       .  A
C3481      H3486   1.078       .  S
C3482      C3483   1.408       .  A
C3483      C3484   1.386       .  A
C3483      F3487   1.357       .  S
C3484      H3488   1.085       .  S
