geometry optimzed in LAMMPS
_audit_creation_date              2020-11-30 
_audit_creation_method            'lammps2cif' 
_symmetry_space_group_name_H-M    'P1' 
_symmetry_Int_Tables_number       1 
_symmetry_cell_setting            triclinic 
loop_ 
_symmetry_equiv_pos_as_xyz 
  x,y,z 
_cell_length_a                    20.85801712 
_cell_length_b                    58.40060075995765 
_cell_length_c                    26.48399518080517 
_cell_angle_alpha                 90.26450938244602 
_cell_angle_beta                  90.27269798797609 
_cell_angle_gamma                 92.6948721467779 
loop_ 
_atom_site_label 
_atom_site_type_symbol 
_atom_site_fract_x 
_atom_site_fract_y 
_atom_site_fract_z 
_atom_site_charge 
C1          C  0.49222701  0.72835493  0.50074656    -0.02600
C2          C  0.25033549  0.78724058  0.49254482    -0.02600
N3          N  0.18464791  0.88836802  0.88500865    -0.27400
N4          N  0.16795342  0.90984875  0.88788831    -0.35300
C5          C  0.14862208  0.91438460  0.93486669     0.00900
C6          C  0.15370050  0.89491669  0.96380384     0.07000
C7          C  0.17685107  0.87861160  0.93097221    -0.06100
H8          H  0.13486275  0.93107239  0.94749876     0.07600
H9          H  0.18832994  0.86122113  0.94002394     0.08800
Cu10       Cu  0.18142518  0.93337251  0.83069698     0.44200
Cu11       Cu  0.21806662  0.87563206  0.81662283     0.42000
Cu12       Cu  0.27407646  0.92090780  0.72308298     0.43900
N13         N  0.21584670  0.95835354  0.78182299    -0.34800
N14         N  0.25231541  0.95451388  0.74231911    -0.29000
C15         C  0.27418145  0.97494991  0.72367812    -0.05100
C16         C  0.25056158  0.99225179  0.75356274     0.07100
C17         C  0.21396246  0.98095419  0.78979238     0.00900
H18         H  0.30906064  0.97700247  0.69357319     0.08500
H19         H  0.19164711  0.98859124  0.82227940     0.07600
N20         N  0.27016545  0.88536190  0.71053543    -0.36200
N21         N  0.24472186  0.86977907  0.74168777    -0.28400
C22         C  0.23592903  0.84977734  0.71650430    -0.03700
C23         C  0.25837149  0.85247334  0.66747911     0.05000
C24         C  0.28089453  0.87524137  0.66578620     0.03000
H25         H  0.21148055  0.83469780  0.73213773     0.08200
H26         H  0.29989434  0.88428409  0.63313821     0.07000
N27         N  0.27692879  0.12103436  0.89741772    -0.27400
N28         N  0.28717951  0.09914941  0.90456532    -0.35300
C29         C  0.28118245  0.09411873  0.95358409     0.00900
C30         C  0.26689034  0.11369031  0.97970372     0.07000
C31         C  0.26464077  0.13064487  0.94288941    -0.06100
H32         H  0.28362919  0.07694924  0.96886554     0.07600
H33         H  0.25075420  0.14813125  0.94830042     0.08800
Cu34       Cu  0.29847838  0.07575222  0.84755038     0.44200
Cu35       Cu  0.27457932  0.13364257  0.82300160     0.42000
Cu36       Cu  0.28883334  0.08785365  0.71924468     0.43900
N37         N  0.29191447  0.05031167  0.79377509    -0.34800
N38         N  0.28744149  0.05402760  0.74481910    -0.29000
C39         C  0.27597302  0.03363174  0.72111723    -0.05100
C40         C  0.27268641  0.01655309  0.75762384     0.07100
C41         C  0.28295509  0.02790159  0.80288570     0.00900
H42         H  0.26612944  0.03157659  0.68107570     0.08500
H43         H  0.28051408  0.02050000  0.84037048     0.07600
N44         N  0.28529105  0.12329078  0.70879791    -0.36200
N45         N  0.27817998  0.13913127  0.74425625    -0.28400
C46         C  0.27182630  0.15951211  0.72146326    -0.03700
C47         C  0.27541079  0.15648931  0.66957432     0.05000
C48         C  0.28445767  0.13335151  0.66316663     0.03000
H49         H  0.26265030  0.17529593  0.74116191     0.08200
H50         H  0.28717806  0.12423639  0.62762451     0.07000
N51         N  0.06660829  0.62533977  0.11322552    -0.27400
N52         N  0.09505821  0.60583739  0.10707059    -0.35300
C53         C  0.10472347  0.60198468  0.05802274     0.00900
C54         C  0.08114382  0.61980049  0.03055098     0.07000
C55         C  0.05722593  0.63455151  0.06688309    -0.06100
H56         H  0.12513999  0.58663686  0.04353681     0.07600
H57         H  0.03339862  0.65030035  0.06005235     0.08800
Cu58       Cu  0.11122604  0.58283650  0.16335063     0.44200
Cu59       Cu  0.04383275  0.63531188  0.18744684     0.42000
Cu60       Cu  0.07343513  0.58994482  0.28935809     0.43900
N61         N  0.10618966  0.55564169  0.21201122    -0.34800
N62         N  0.08941397  0.55717745  0.25977819    -0.29000
C63         C  0.08353533  0.53565948  0.27889702    -0.05100
C64         C  0.09762834  0.52014784  0.24071647     0.07100
C65         C  0.11178394  0.53364478  0.19916020     0.00900
H66         H  0.06872647  0.53158034  0.31704580     0.08500
H67         H  0.12276615  0.52796551  0.16161000     0.07600
N68         N  0.05629268  0.62487491  0.30165361    -0.36200
N69         N  0.04105807  0.63993041  0.26665763    -0.28400
C70         C  0.52712190  0.65972196  0.28981501    -0.03700
C71         C  0.03540246  0.65749065  0.34168022     0.05000
C72         C  0.05457984  0.63515036  0.34738577     0.03000
H73         H  0.01121993  0.67457959  0.27013382     0.08200
H74         H  0.56628746  0.62687882  0.38232835     0.07000
N75         N  0.04889637  0.39015988  0.10552733    -0.27400
N76         N  0.07936365  0.41028159  0.09980577    -0.35300
C77         C  0.08585543  0.41493470  0.05066275     0.00900
C78         C  0.05782845  0.39706523  0.02269331     0.07000
C79         C  0.03462676  0.38143926  0.05888324    -0.06100
H80         H  0.10730969  0.43084480  0.03651564     0.07600
H81         H  0.00849180  0.36530578  0.05183107     0.08800
Cu82       Cu  0.10161950  0.43289004  0.15782229     0.44200
Cu83       Cu  0.03120133  0.37851341  0.17988825     0.42000
Cu84       Cu  0.04823379  0.42474592  0.28250232     0.43900
N85         N  0.09808167  0.45949770  0.20886783    -0.34800
N86         N  0.07568600  0.45749891  0.25523201    -0.29000
C87         C  0.07333009  0.47878440  0.27565643    -0.05100
C88         C  0.09515894  0.49470310  0.23985802     0.07100
C89         C  0.11042477  0.48165891  0.19827559     0.00900
H90         H  0.05523781  0.48244660  0.31297579     0.08500
H91         H  0.12682991  0.48776881  0.16209388     0.07600
N92         N  0.03342510  0.38925224  0.29457676    -0.36200
N93         N  0.02912402  0.37313326  0.25898563    -0.28400
C94         C  0.02316917  0.35247947  0.28160697    -0.03700
C95         C  0.02274404  0.35553022  0.33368155     0.05000
C96         C  0.02931227  0.37911301  0.34025654     0.03000
H97         H  0.01883998  0.33630079  0.26153948     0.08200
H98         H  0.03078482  0.38827629  0.37584825     0.07000
N99         N  0.14821428  0.88570912  0.10062000    -0.27400
N100        N  0.12315823  0.90593618  0.09620391    -0.35300
C101        C  0.11837434  0.91130539  0.04730518     0.00900
C102        C  0.14184653  0.89374004  0.01876386     0.07000
C103        C  0.16011201  0.87756673  0.05381593    -0.06100
H104        H  0.10301968  0.92765501  0.03378850     0.07600
H105        H  0.18381709  0.86186597  0.04605313     0.08800
Cu106      Cu  0.11089625  0.92803634  0.15571359     0.44200
Cu107      Cu  0.16965157  0.87332124  0.17241093     0.42000
Cu108      Cu  0.16803667  0.91791950  0.27796644     0.43900
N109        N  0.12695155  0.95403103  0.20757316    -0.34800
N110        N  0.15121241  0.95131299  0.25313963    -0.29000
C111        C  0.16421363  0.97236774  0.27366361    -0.05100
C112        C  0.14730022  0.98886614  0.23870545     0.07100
C113        C  0.12373983  0.97639095  0.19763961     0.00900
H114        H  0.18692659  0.97545293  0.31009420     0.08500
H115        H  0.10846711  0.98300541  0.16177485     0.07600
N116        N  0.17884344  0.88241443  0.28658647    -0.36200
N117        N  0.18063271  0.86697515  0.24969488    -0.28400
C118        C  0.19140556  0.84634101  0.26989521    -0.03700
C119        C  0.19629370  0.84871514  0.32179846     0.05000
C120        C  0.18794162  0.87178076  0.33092074     0.03000
H121        H  0.19727500  0.83084830  0.24817546     0.08200
H122        H  0.19053560  0.88036074  0.36721050     0.07000
N123        N  0.24087168  0.11947364  0.11622775    -0.27400
N124        N  0.21169352  0.09943488  0.10580783    -0.35300
C125        C  0.21417302  0.09538908  0.05608256     0.00900
C126        C  0.24572814  0.11377907  0.03299963     0.07000
C127        C  0.26208499  0.12891768  0.07232226    -0.06100
H128        H  0.19699128  0.07948650  0.03817740     0.07600
H129        H  0.29104319  0.14478789  0.06959223     0.08800
Cu130      Cu  0.17899129  0.07629563  0.15937094     0.44200
Cu131      Cu  0.25392725  0.12962036  0.19222622     0.42000
Cu132      Cu  0.22070497  0.08222898  0.28805267     0.43900
N133        N  0.16848015  0.04956735  0.20957883    -0.34800
N134        N  0.18717294  0.05057145  0.25725147    -0.29000
C135        C  0.18153807  0.02913129  0.27677500    -0.05100
C136        C  0.15793640  0.01419100  0.23911359     0.07100
C137        C  0.15017043  0.02796154  0.19742329     0.00900
H138        H  0.19494109  0.02467720  0.31484327     0.08500
H139        H  0.13537456  0.02256327  0.15992348     0.07600
N140        N  0.24384989  0.11696377  0.30503287    -0.36200
N141        N  0.25570230  0.13348959  0.27158161    -0.28400
C142        C  0.26294400  0.15366670  0.29647747    -0.03700
C143        C  0.25492453  0.14989016  0.34781356     0.05000
C144        C  0.24301151  0.12640272  0.35168083     0.03000
H145        H  0.26956832  0.17015604  0.27826302     0.08200
H146        H  0.23077267  0.11705710  0.38563733     0.07000
C147        C  0.48758869  0.28459226  0.49897643    -0.02600
C148        C  0.23016824  0.22351667  0.50654642    -0.02600
N149        N  0.05788061  0.62684305  0.89321415    -0.27400
N150        N  0.08500779  0.60693906  0.89624432    -0.35300
C151        C  0.09859895  0.60240416  0.94441443     0.00900
C152        C  0.07882748  0.62011888  0.97446924     0.07000
C153        C  0.05315422  0.63554612  0.94063754    -0.06100
H154        H  0.11851503  0.58659913  0.95666513     0.07600
H155        H  0.03120080  0.65144505  0.94991142     0.08800
Cu156      Cu  0.09195158  0.58412342  0.83742300     0.44200
Cu157      Cu  0.02945458  0.63824611  0.82155208     0.42000
Cu158      Cu  0.02730007  0.59243906  0.71743048     0.43900
N159        N  0.07479479  0.55742808  0.78756002    -0.34800
N160        N  0.04772691  0.55951073  0.74279507    -0.29000
C161        C  0.03672939  0.53824402  0.72287862    -0.05100
C162        C  0.05817974  0.52227320  0.75730682     0.07100
C163        C  0.08195971  0.53526152  0.79751884     0.00900
H164        H  0.01357561  0.53463988  0.68680987     0.08500
H165        H  0.10087749  0.52906135  0.83280143     0.07600
N166        N  0.01828961  0.62788910  0.70711135    -0.36200
N167        N  0.01826076  0.64374099  0.74331690    -0.28400
C168        C  0.01306963  0.66444067  0.72167154    -0.03700
C169        C  0.00994098  0.66162156  0.66976358     0.05000
C170        C  0.01329201  0.63828012  0.66190780     0.03000
H171        H  0.01233085  0.68049370  0.74224144     0.08200
H172        H  0.01254643  0.62948690  0.62588455     0.07000
N173        N  0.52329777  0.39128511  0.88603326    -0.27400
N174        N  0.55495688  0.41131392  0.88965636    -0.35300
C175        C  0.57138844  0.41556215  0.93774418     0.00900
C176        C  0.54920505  0.39747160  0.96732289     0.07000
C177        C  0.51871097  0.38214549  0.93312584    -0.06100
H178        H  0.59586977  0.43130173  0.95030782     0.07600
H179        H  0.49420456  0.36594565  0.94195835     0.08800
Cu180      Cu  0.56688878  0.43427100  0.83151154     0.44200
Cu181      Cu  0.49066894  0.38054823  0.81352503     0.42000
Cu182      Cu  0.49643020  0.42791121  0.71254362     0.43900
N183        N  0.55729933  0.46161677  0.78393956    -0.34800
N184        N  0.52800789  0.46032886  0.73970564    -0.29000
C185        C  0.52408259  0.48187196  0.72139575    -0.05100
C186        C  0.55245144  0.49718269  0.75637900     0.07100
C187        C  0.57283467  0.48352690  0.79516982     0.00900
H188        H  0.50118565  0.48610596  0.68610327     0.08500
H189        H  0.59537584  0.48910323  0.83032600     0.07600
N190        N  0.48295492  0.39244698  0.69955516    -0.36200
N191        N  0.47920463  0.37612358  0.73438757    -0.28400
C192        C  0.47478747  0.35560220  0.71070877    -0.03700
C193        C  0.47705589  0.35891940  0.65882196     0.05000
C194        C  0.48205267  0.38252966  0.65339728     0.03000
H195        H  0.47352269  0.33927404  0.72995616     0.08200
H196        H  0.48769257  0.39184254  0.61834156     0.07000
C197        C  0.43785586  0.33943889  0.57841394    -0.02000
C198        C  0.48171125  0.34094721  0.61848510     0.07700
C199        C  0.02875618  0.32480266  0.62113825    -0.02100
C200        C  0.02937142  0.30584365  0.58720818    -0.02100
C201        C  0.48623834  0.30356414  0.54442174     0.07900
C202        C  0.43962967  0.32150340  0.54202958    -0.02300
Br203      Br  0.36836104  0.32127646  0.49487005    -0.00800
Br204      Br  0.37201427  0.36185008  0.57538127    -0.00900
Br205      Br  0.09161571  0.28468209  0.60725016    -0.00800
Br206      Br  0.09757798  0.33045839  0.67035295    -0.00800
C207        C  0.05422570  0.24904876  0.53378986    -0.02000
C208        C  0.04787660  0.26734353  0.49813775     0.07700
C209        C  0.09707827  0.26704878  0.45945037    -0.02100
C210        C  0.15555306  0.25527657  0.46572075    -0.02100
C211        C  0.16564799  0.23882918  0.50505224     0.07900
C212        C  0.11350691  0.23772048  0.54142810    -0.02300
Br213      Br  0.12086240  0.22595784  0.60992012    -0.00800
Br214      Br  0.98335173  0.23895177  0.57688083    -0.00900
Br215      Br  0.22032085  0.26260383  0.41617548    -0.00800
Br216      Br  0.08275956  0.27629587  0.38914557    -0.00800
C217        C  0.30791155  0.26027206  0.53155141    -0.02000
C218        C  0.29502822  0.24049855  0.50054034     0.07700
C219        C  0.34448452  0.23802462  0.46278513    -0.02100
C220        C  0.40664598  0.24952342  0.46710965    -0.02100
C221        C  0.42051896  0.26854338  0.50081631     0.07900
C222        C  0.37045409  0.27074001  0.53796980    -0.02300
Br223      Br  0.38365731  0.28240709  0.60654056    -0.00800
Br224      Br  0.24070029  0.27929447  0.55468073    -0.00900
Br225      Br  0.46942456  0.23838429  0.42192949    -0.00800
Br226      Br  0.32760027  0.22531990  0.39473409    -0.00800
C227        C  0.19486517  0.18180230  0.38626252    -0.02000
C228        C  0.24683577  0.16754056  0.38818742     0.07700
C229        C  0.28994425  0.16978100  0.42871186    -0.02100
C230        C  0.28445439  0.18737143  0.46552840    -0.02100
C231        C  0.23284388  0.20348061  0.46387734     0.07900
C232        C  0.18623349  0.19888883  0.42374882    -0.02300
Br233      Br  0.10383633  0.21175030  0.41862723    -0.00800
Br234      Br  0.13193904  0.17626341  0.33245876    -0.00900
Br235      Br  0.35571088  0.18968411  0.51316581    -0.00800
Br236      Br  0.36017335  0.14919612  0.43111226    -0.00800
C237        C  0.45214347  0.30435753  0.40911050    -0.02000
C238        C  0.99539651  0.30215969  0.45113718     0.07700
C239        C  0.05007401  0.31870297  0.45082936    -0.02100
C240        C  0.05889996  0.33546554  0.41244513    -0.02100
C241        C  0.01376238  0.33747870  0.37362296     0.07900
C242        C  0.46056422  0.32232929  0.37322388    -0.02300
Br243      Br  0.39414785  0.32797806  0.32342631    -0.00800
Br244      Br  0.37658780  0.28536806  0.39494467    -0.00900
Br245      Br  0.13644446  0.35516921  0.41061336    -0.00800
Br246      Br  0.12051670  0.31826989  0.49880347    -0.00800
C247        C  0.29610234  0.19483547  0.62916113    -0.02000
C248        C  0.26184687  0.17363969  0.62988107     0.07700
C249        C  0.20937198  0.17007594  0.59687328    -0.02100
C250        C  0.19440265  0.18692967  0.56094604    -0.02100
C251        C  0.23168400  0.20843577  0.55725029     0.07900
C252        C  0.27581922  0.21277253  0.59838197    -0.02300
Br253      Br  0.27671625  0.24057729  0.63671307    -0.00800
Br254      Br  0.37119739  0.19990322  0.67160613    -0.00900
Br255      Br  0.11592262  0.18070323  0.52322695    -0.00800
Br256      Br  0.15573090  0.14216704  0.60221450    -0.00800
C257        C  0.22366828  0.82785100  0.53502281    -0.02000
C258        C  0.24533403  0.80464753  0.53891461     0.07700
C259        C  0.25363748  0.79673746  0.58968755    -0.02100
C260        C  0.26139024  0.81235563  0.63065315    -0.02100
C261        C  0.25071089  0.83582061  0.62420292     0.07900
C262        C  0.22760755  0.84304419  0.57704319    -0.02300
Br263      Br  0.19062394  0.87292852  0.57200734    -0.00800
Br264      Br  0.16602784  0.83774672  0.48191760    -0.00900
Br265      Br  0.29560875  0.80160695  0.69390832    -0.00800
Br266      Br  0.25773924  0.76461563  0.60536661    -0.00800
C267        C  0.28603639  0.82049917  0.42829672    -0.02000
C268        C  0.24455418  0.80084813  0.44059630     0.07700
C269        C  0.19747855  0.79469020  0.40240991    -0.02100
C270        C  0.17908762  0.81072554  0.36591538    -0.02100
C271        C  0.21555094  0.83127701  0.35910200     0.07900
C272        C  0.27213993  0.83499729  0.38733511    -0.02300
Br273      Br  0.33116263  0.86023743  0.36901174    -0.00800
Br274      Br  0.36192653  0.82940686  0.46535775    -0.00900
Br275      Br  0.10267537  0.80443966  0.32578449    -0.00800
Br276      Br  0.17551335  0.76328589  0.38460233    -0.00800
C277        C  0.43811691  0.70627359  0.58317528    -0.02000
C278        C  0.99329207  0.71503135  0.55556196     0.07700
C279        C  0.05203474  0.71112419  0.58211906    -0.02100
C280        C  0.05843985  0.69146247  0.61203356    -0.02100
C281        C  0.00386319  0.67983537  0.63115913     0.07900
C282        C  0.44361420  0.68870988  0.61986576    -0.02300
Br283      Br  0.36902103  0.67584939  0.65506502    -0.00800
Br284      Br  0.35422099  0.71809334  0.57968525    -0.00900
Br285      Br  0.14265927  0.68254252  0.63240745    -0.00800
Br286      Br  0.10759946  0.73619622  0.60615883    -0.00800
C287        C  0.46690243  0.68650871  0.45918666    -0.02000
C288        C  0.99063849  0.70977263  0.45548829     0.07700
C289        C  0.02002912  0.71535303  0.40773801    -0.02100
C290        C  0.04044508  0.69824663  0.37437932    -0.02100
C291        C  0.02209559  0.67501543  0.38175869     0.07900
C292        C  0.48474185  0.66941447  0.42415124    -0.02300
Br293      Br  0.45111660  0.63811627  0.43248234    -0.00800
Br294      Br  0.39011280  0.67819399  0.49589570    -0.00900
Br295      Br  0.09922365  0.70704223  0.32075900    -0.00800
Br296      Br  0.01925826  0.74566271  0.37966511    -0.00800
C297        C  0.12055834  0.73207326  0.49197232    -0.02000
C298        C  0.05969974  0.74290439  0.49461424     0.07700
C299        C  0.06650110  0.76738992  0.49213349    -0.02100
C300        C  0.12400527  0.77913853  0.50654289    -0.02100
C301        C  0.18602978  0.76984866  0.49913972     0.07900
C302        C  0.18111475  0.74516991  0.49354777    -0.02300
Br303      Br  0.25329219  0.72690526  0.48989175    -0.01600
Br304      Br  0.12456435  0.69857601  0.48679927    -0.00900
Br305      Br  0.10329467  0.79846849  0.56307623    -0.00800
Br306      Br  0.00769595  0.78805705  0.46180569    -0.00800
C307        C  0.38811216  0.74544113  0.45427326    -0.02000
C308        C  0.43148284  0.74459008  0.49692010     0.07700
C309        C  0.42022135  0.76152937  0.53508110    -0.02100
C310        C  0.37078263  0.77770909  0.53067179    -0.02100
C311        C  0.32152459  0.77578292  0.49165926     0.07900
C312        C  0.34394393  0.76316043  0.44908190    -0.02300
Br313      Br  0.33619007  0.77340914  0.38002223    -0.00800
Br314      Br  0.37156760  0.72152980  0.40356589    -0.00900
Br315      Br  0.39169183  0.80562341  0.56935340    -0.00800
Br316      Br  0.47007702  0.76308197  0.59712068    -0.00800
C317        C  0.99191079  0.72817231  0.50093278    -0.02600
C318        C  0.75073940  0.78740470  0.49248297    -0.02600
N319        N  0.68152912  0.88831115  0.88436828    -0.27400
N320        N  0.66556036  0.90986216  0.88756636    -0.35300
C321        C  0.64606992  0.91431207  0.93454455     0.00900
C322        C  0.65031960  0.89470815  0.96316030     0.07000
C323        C  0.67311356  0.87841470  0.93012619    -0.06100
H324        H  0.63295335  0.93103489  0.94744894     0.07600
H325        H  0.68408608  0.86095033  0.93894175     0.08800
Cu326      Cu  0.68058748  0.93353618  0.83088938     0.44200
Cu327      Cu  0.71531159  0.87575869  0.81593831     0.42000
Cu328      Cu  0.77354129  0.92118654  0.72329505     0.43900
N329        N  0.71577152  0.95857485  0.78248254    -0.34800
N330        N  0.75223980  0.95477679  0.74295568    -0.29000
C331        C  0.77425306  0.97523030  0.72450340    -0.05100
C332        C  0.75073045  0.99249303  0.75454710     0.07100
C333        C  0.71405182  0.98116231  0.79067007     0.00900
H334        H  0.80906655  0.97731334  0.69435930     0.08500
H335        H  0.69163814  0.98876224  0.82315637     0.07600
N336        N  0.76899695  0.88567811  0.71034836    -0.36200
N337        N  0.74294086  0.87007549  0.74117152    -0.28400
C338        C  0.73436596  0.85011960  0.71580107    -0.03700
C339        C  0.75756962  0.85286313  0.66702138     0.05000
C340        C  0.78024471  0.87561523  0.66562107     0.03000
H341        H  0.70967700  0.83502139  0.73114040     0.08200
H342        H  0.79981205  0.88467807  0.63319349     0.07000
N343        N  0.77709413  0.12140861  0.89806909    -0.27400
N344        N  0.78743961  0.09953428  0.90527495    -0.35300
C345        C  0.78162438  0.09453817  0.95431044     0.00900
C346        C  0.76731406  0.11411515  0.98037568     0.07000
C347        C  0.76487045  0.13104317  0.94352381    -0.06100
H348        H  0.78412080  0.07737797  0.96963606     0.07600
H349        H  0.75088470  0.14851958  0.94889897     0.08800
Cu350      Cu  0.79844918  0.07604849  0.84843834     0.44200
Cu351      Cu  0.77467312  0.13399146  0.82366016     0.42000
Cu352      Cu  0.78912340  0.08809198  0.72024529     0.43900
N353        N  0.79177108  0.05056586  0.79480131    -0.34800
N354        N  0.78747167  0.05427010  0.74583485    -0.29000
C355        C  0.77610748  0.03387072  0.72213390    -0.05100
C356        C  0.77270326  0.01680259  0.75865605     0.07100
C357        C  0.78278085  0.02815853  0.80393092     0.00900
H358        H  0.76646562  0.03180387  0.68206651     0.08500
H359        H  0.78026719  0.02076173  0.84141864     0.07600
N360        N  0.78603848  0.12352585  0.70959825    -0.36200
N361        N  0.77880482  0.13941293  0.74493010    -0.28400
C362        C  0.77266409  0.15977189  0.72199273    -0.03700
C363        C  0.77650547  0.15668263  0.67013768     0.05000
C364        C  0.78551364  0.13353298  0.66390729     0.03000
H365        H  0.76334212  0.17557650  0.74155489     0.08200
H366        H  0.78826541  0.12436609  0.62843201     0.07000
N367        N  0.56494385  0.62515648  0.11324160    -0.27400
N368        N  0.59318985  0.60561559  0.10706552    -0.35300
C369        C  0.60287571  0.60177024  0.05801681     0.00900
C370        C  0.57954959  0.61963845  0.03057134     0.07000
C371        C  0.55571436  0.63440213  0.06691453    -0.06100
H372        H  0.62325539  0.58641813  0.04351334     0.07600
H373        H  0.53221465  0.65021942  0.06010803     0.08800
Cu374      Cu  0.60950359  0.58265450  0.16338209     0.44200
Cu375      Cu  0.54257359  0.63520152  0.18748523     0.42000
Cu376      Cu  0.57244253  0.58988547  0.28946802     0.43900
N377        N  0.60488821  0.55551845  0.21218277    -0.34800
N378        N  0.58831154  0.55708308  0.25998818    -0.29000
C379        C  0.58275145  0.53557870  0.27921890    -0.05100
C380        C  0.59686543  0.52005202  0.24106713     0.07100
C381        C  0.61068716  0.53352382  0.19941720     0.00900
H382        H  0.56821120  0.53151783  0.31744056     0.08500
H383        H  0.62161864  0.52782720  0.16187192     0.07600
N384        N  0.55603149  0.62488986  0.30165334    -0.36200
N385        N  0.54063684  0.63992855  0.26667217    -0.28400
C386        C  0.02705871  0.65966599  0.28982738    -0.03700
C387        C  0.53595024  0.65760355  0.34162946     0.05000
C388        C  0.55495728  0.63523789  0.34733031     0.03000
H389        H  0.51118417  0.67462481  0.27013633     0.08200
H390        H  0.06567083  0.62677022  0.38241135     0.07000
N391        N  0.54813697  0.39010095  0.10625257    -0.27400
N392        N  0.57872253  0.41019388  0.10044285    -0.35300
C393        C  0.58441304  0.41493628  0.05128637     0.00900
C394        C  0.55569759  0.39716147  0.02340290     0.07000
C395        C  0.53300511  0.38148362  0.05966744    -0.06100
H396        H  0.60571798  0.43086312  0.03710626     0.07600
H397        H  0.50644658  0.36542356  0.05272589     0.08800
Cu398      Cu  0.60167100  0.43274166  0.15847098     0.44200
Cu399      Cu  0.53116160  0.37845039  0.18066958     0.42000
Cu400      Cu  0.54911606  0.42465445  0.28338562     0.43900
N401        N  0.59809936  0.45938874  0.20946249    -0.34800
N402        N  0.57599373  0.45739837  0.25591405    -0.29000
C403        C  0.57341104  0.47869005  0.27626074    -0.05100
C404        C  0.59478383  0.49461000  0.24032076     0.07100
C405        C  0.61002332  0.48155866  0.19873566     0.00900
H406        H  0.55545504  0.48235028  0.31362492     0.08500
H407        H  0.62610859  0.48766434  0.16246730     0.07600
N408        N  0.53453560  0.38916866  0.29536418    -0.36200
N409        N  0.52979669  0.37307219  0.25973838    -0.28400
C410        C  0.52381360  0.35241319  0.28230951    -0.03700
C411        C  0.52387355  0.35544714  0.33437596     0.05000
C412        C  0.53075007  0.37901117  0.34102763     0.03000
H413        H  0.51903568  0.33624866  0.26221819     0.08200
H414        H  0.53253066  0.38815076  0.37664934     0.07000
N415        N  0.64588836  0.88535314  0.09990283    -0.27400
N416        N  0.62089920  0.90560753  0.09575321    -0.35300
C417        C  0.61550916  0.91099491  0.04690252     0.00900
C418        C  0.63853790  0.89342693  0.01811978     0.07000
C419        C  0.65712937  0.87722313  0.05297778    -0.06100
H420        H  0.60026455  0.92738841  0.03355847     0.07600
H421        H  0.68082721  0.86154372  0.04498432     0.08800
Cu422      Cu  0.61007183  0.92783214  0.15529877     0.44200
Cu423      Cu  0.66872004  0.87290893  0.17138219     0.42000
Cu424      Cu  0.67055652  0.91765313  0.27649662     0.43900
N425        N  0.62781536  0.95384443  0.20690532    -0.34800
N426        N  0.65328067  0.95106335  0.25204112    -0.29000
C427        C  0.66700316  0.97208308  0.27248435    -0.05100
C428        C  0.64932191  0.98863648  0.23793483     0.07100
C429        C  0.62455729  0.97622904  0.19716919     0.00900
H430        H  0.69070664  0.97510629  0.30855329     0.08500
H431        H  0.60837313  0.98290967  0.16162284     0.07600
N432        N  0.68103487  0.88214426  0.28528344    -0.36200
N433        N  0.68157819  0.86661256  0.24851638    -0.28400
C434        C  0.69223539  0.84597429  0.26877140    -0.03700
C435        C  0.69832648  0.84845052  0.32060106     0.05000
C436        C  0.69082325  0.87157870  0.32959003     0.03000
H437        H  0.69706218  0.83039671  0.24712384     0.08200
H438        H  0.69426003  0.88022974  0.36577316     0.07000
N439        N  0.74185637  0.11964121  0.11691845    -0.27400
N440        N  0.71224953  0.09969569  0.10633420    -0.35300
C441        C  0.71430831  0.09580071  0.05654550     0.00900
C442        C  0.74606507  0.11418815  0.03361873     0.07000
C443        C  0.76298425  0.12916884  0.07308423    -0.06100
H444        H  0.69686996  0.07996508  0.03848801     0.07600
H445        H  0.79232903  0.14495753  0.07048790     0.08800
Cu446      Cu  0.67997276  0.07636172  0.15964330     0.44200
Cu447      Cu  0.75557498  0.12954132  0.19292054     0.42000
Cu448      Cu  0.72313685  0.08188135  0.28809927     0.43900
N449        N  0.67036278  0.04941489  0.20937550    -0.34800
N450        N  0.68964647  0.05028430  0.25691484    -0.29000
C451        C  0.68428960  0.02878797  0.27615069    -0.05100
C452        C  0.66021785  0.01395165  0.23846657     0.07100
C453        C  0.65192977  0.02783532  0.19703565     0.00900
H454        H  0.69804618  0.02423416  0.31407843     0.08500
H455        H  0.63657608  0.02253536  0.15959636     0.07600
N456        N  0.74543659  0.11663988  0.30552699    -0.36200
N457        N  0.75706788  0.13324450  0.27222799    -0.28400
C458        C  0.76369309  0.15340157  0.29723447    -0.03700
C459        C  0.75549106  0.14954062  0.34849946     0.05000
C460        C  0.74412182  0.12601718  0.35222699     0.03000
H461        H  0.77003613  0.16992526  0.27912544     0.08200
H462        H  0.73196521  0.11659790  0.38610172     0.07000
C463        C  0.98724293  0.28466992  0.49858154    -0.02600
C464        C  0.73032403  0.22335871  0.50665719    -0.02600
N465        N  0.55699649  0.62686019  0.89322752    -0.27400
N466        N  0.58487809  0.60709360  0.89615602    -0.35300
C467        C  0.59835919  0.60252698  0.94433763     0.00900
C468        C  0.57772178  0.62007207  0.97448609     0.07000
C469        C  0.55167110  0.63543594  0.94070976    -0.06100
H470        H  0.61877729  0.58679900  0.95652282     0.07600
H471        H  0.52899885  0.65118774  0.95005685     0.08800
Cu472      Cu  0.59272448  0.58441013  0.83714737     0.44200
Cu473      Cu  0.52839613  0.63829694  0.82163320     0.42000
Cu474      Cu  0.52747295  0.59277371  0.71723743     0.43900
N475        N  0.57522320  0.55774889  0.78720218    -0.34800
N476        N  0.54791538  0.55986191  0.74253426    -0.29000
C477        C  0.53628685  0.53860589  0.72274159    -0.05100
C478        C  0.55750245  0.52259972  0.75716506     0.07100
C479        C  0.58188264  0.53556143  0.79722574     0.00900
H480        H  0.51262589  0.53503577  0.68685818     0.08500
H481        H  0.60072865  0.52933751  0.83251033     0.07600
N482        N  0.51804277  0.62819051  0.70710719    -0.36200
N483        N  0.51748948  0.64396927  0.74343571    -0.28400
C484        C  0.51210342  0.66469114  0.72192830    -0.03700
C485        C  0.50939316  0.66195195  0.66998169     0.05000
C486        C  0.51322780  0.63864168  0.66196605     0.03000
H487        H  0.51101184  0.68070522  0.74261311     0.08200
H488        H  0.51294568  0.62991123  0.62587550     0.07000
N489        N  0.02643332  0.39105691  0.88532495    -0.27400
N490        N  0.05959640  0.41080564  0.88871247    -0.35300
C491        C  0.07627770  0.41499108  0.93679392     0.00900
C492        C  0.05257099  0.39717891  0.96654451     0.07000
C493        C  0.02106578  0.38206274  0.93248965    -0.06100
H494        H  0.10160731  0.43058124  0.94928805     0.07600
H495        H  0.99497806  0.36618429  0.94150308     0.08800
Cu496      Cu  0.07188249  0.43381214  0.83053824     0.44200
Cu497      Cu  0.99214936  0.38043149  0.81328566     0.42000
Cu498      Cu  0.99735956  0.42767080  0.71276893     0.43900
N499        N  0.06079109  0.46124492  0.78327269    -0.34800
N500        N  0.02998890  0.45998476  0.73965900    -0.29000
C501        C  0.02502450  0.48153506  0.72167884    -0.05100
C502        C  0.05422627  0.49684973  0.75622030     0.07100
C503        C  0.07625044  0.48317980  0.79441520     0.00900
H504        H  0.00062338  0.48577230  0.68702892     0.08500
H505        H  0.09972811  0.48876811  0.82919751     0.07600
N506        N  0.98315042  0.39228505  0.69956462    -0.36200
N507        N  0.97954212  0.37595278  0.73435748    -0.28400
C508        C  0.97476633  0.35544340  0.71066423    -0.03700
C509        C  0.97667563  0.35879269  0.65878365     0.05000
C510        C  0.98181147  0.38239806  0.65338699     0.03000
H511        H  0.97366913  0.33910667  0.72987183     0.08200
H512        H  0.98738207  0.39172049  0.61833744     0.07000
C513        C  0.93732504  0.33937427  0.57840289    -0.02000
C514        C  0.98127980  0.34086403  0.61839543     0.07700
C515        C  0.52904129  0.32482859  0.62141356    -0.02100
C516        C  0.52966454  0.30583260  0.58755980    -0.02100
C517        C  0.98588633  0.30360144  0.54409583     0.07900
C518        C  0.93921069  0.32151946  0.54184329    -0.02300
Br519      Br  0.86802802  0.32137007  0.49464379    -0.00800
Br520      Br  0.87120557  0.36169228  0.57575645    -0.00900
Br521      Br  0.59180331  0.28463676  0.60769407    -0.00800
Br522      Br  0.59766705  0.33044937  0.67079188    -0.00800
C523        C  0.55448376  0.24896929  0.53419428    -0.02000
C524        C  0.54810764  0.26722836  0.49848785     0.07700
C525        C  0.59704324  0.26682148  0.45960316    -0.02100
C526        C  0.65545208  0.25500411  0.46573455    -0.02100
C527        C  0.66570555  0.23862428  0.50517275     0.07900
C528        C  0.61369316  0.23758002  0.54169269    -0.02300
Br529      Br  0.62102489  0.22576554  0.61013001    -0.00800
Br530      Br  0.48360477  0.23896116  0.57737932    -0.00900
Br531      Br  0.71989069  0.26217012  0.41583815    -0.00800
Br532      Br  0.58228512  0.27594413  0.38926003    -0.00800
C533        C  0.80783918  0.26019535  0.53134121    -0.02000
C534        C  0.79506719  0.24038608  0.50043205     0.07700
C535        C  0.84447162  0.23793887  0.46258817    -0.02100
C536        C  0.90650071  0.24957877  0.46667966    -0.02100
C537        C  0.92029305  0.26857613  0.50046141     0.07900
C538        C  0.87029536  0.27072013  0.53768206    -0.02300
Br539      Br  0.88348086  0.28238308  0.60625631    -0.00800
Br540      Br  0.74056542  0.27921422  0.55434469    -0.00900
Br541      Br  0.96919378  0.23882467  0.42088655    -0.00800
Br542      Br  0.82756624  0.22502623  0.39472832    -0.00800
C543        C  0.69499264  0.18135378  0.38687631    -0.02000
C544        C  0.74708619  0.16715071  0.38888718     0.07700
C545        C  0.79029264  0.16952256  0.42931185    -0.02100
C546        C  0.78478469  0.18719472  0.46592453    -0.02100
C547        C  0.73305351  0.20325242  0.46416560     0.07900
C548        C  0.68636733  0.19853037  0.42415796    -0.02300
Br549      Br  0.60394935  0.21135809  0.41895673    -0.00800
Br550      Br  0.63196401  0.17562720  0.33322235    -0.00900
Br551      Br  0.85619855  0.18969914  0.51338702    -0.00800
Br552      Br  0.86070361  0.14901800  0.43180892    -0.00800
C553        C  0.95149788  0.30434515  0.40860975    -0.02000
C554        C  0.49602267  0.30207221  0.45158151     0.07700
C555        C  0.55100200  0.31848707  0.45123178    -0.02100
C556        C  0.56015657  0.33518238  0.41276151    -0.02100
C557        C  0.51473788  0.33740638  0.37424766     0.07900
C558        C  0.95999382  0.32220093  0.37240866    -0.02300
Br559      Br  0.89414919  0.32741706  0.32184328    -0.00800
Br560      Br  0.87545615  0.28549036  0.39501316    -0.00900
Br561      Br  0.63842620  0.35448793  0.41034555    -0.00800
Br562      Br  0.62133157  0.31798131  0.49926489    -0.00800
C563        C  0.79678991  0.19497289  0.62937406    -0.02000
C564        C  0.76272802  0.17374152  0.63031378     0.07700
C565        C  0.71017027  0.17006321  0.59743100    -0.02100
C566        C  0.69497272  0.18682845  0.56137458    -0.02100
C567        C  0.73204721  0.20836986  0.55747092     0.07900
C568        C  0.77621762  0.21283316  0.59851182    -0.02300
Br569      Br  0.77656747  0.24065607  0.63674951    -0.00800
Br570      Br  0.87192946  0.20021376  0.67168024    -0.00900
Br571      Br  0.61647177  0.18043923  0.52377593    -0.00800
Br572      Br  0.65669469  0.14213005  0.60314751    -0.00800
C573        C  0.72416057  0.82812148  0.53450154    -0.02000
C574        C  0.74574837  0.80491075  0.53866623     0.07700
C575        C  0.75392430  0.79709398  0.58952510    -0.02100
C576        C  0.76150624  0.81278296  0.63035694    -0.02100
C577        C  0.75062814  0.83621519  0.62372030     0.07900
C578        C  0.72785690  0.84337822  0.57642053    -0.02300
Br579      Br  0.69108312  0.87328405  0.57101952    -0.00800
Br580      Br  0.66703282  0.83799096  0.48101204    -0.00900
Br581      Br  0.79564977  0.80218999  0.69378097    -0.00800
Br582      Br  0.75791279  0.76500065  0.60557595    -0.00800
C583        C  0.78698834  0.82046784  0.42793301    -0.02000
C584        C  0.74525439  0.80089851  0.44037779     0.07700
C585        C  0.69846554  0.79463556  0.40204985    -0.02100
C586        C  0.68051678  0.81054826  0.36513290    -0.02100
C587        C  0.71731589  0.83101003  0.35802939     0.07900
C588        C  0.77380639  0.83471768  0.38638581    -0.02300
Br589      Br  0.83389701  0.85949185  0.36718533    -0.00800
Br590      Br  0.86203244  0.82969944  0.46574350    -0.00900
Br591      Br  0.60440605  0.80415981  0.32472198    -0.00800
Br592      Br  0.67648195  0.76317835  0.38471092    -0.00800
C593        C  0.93817112  0.70593224  0.58325048    -0.02000
C594        C  0.49338916  0.71522777  0.55539939     0.07700
C595        C  0.55208388  0.71124699  0.58195357    -0.02100
C596        C  0.55821819  0.69160128  0.61194596    -0.02100
C597        C  0.50351092  0.68019689  0.63142508     0.07900
C598        C  0.94382200  0.68820555  0.61951855    -0.02300
Br599      Br  0.86924015  0.67498853  0.65414113    -0.00800
Br600      Br  0.85455696  0.71799710  0.58077886    -0.00900
Br601      Br  0.64231966  0.68249272  0.63214157    -0.00800
Br602      Br  0.60775267  0.73626666  0.60616858    -0.00800
C603        C  0.96613983  0.68636463  0.45923330    -0.02000
C604        C  0.49116677  0.70993806  0.45534388     0.07700
C605        C  0.52057589  0.71551427  0.40758793    -0.02100
C606        C  0.54093009  0.69839787  0.37419935    -0.02100
C607        C  0.52279473  0.67515163  0.38170610     0.07900
C608        C  0.98381119  0.66928366  0.42408369    -0.02300
Br609      Br  0.94968857  0.63802950  0.43203214    -0.00800
Br610      Br  0.88927295  0.67812517  0.49595261    -0.00900
Br611      Br  0.59927556  0.70719967  0.32029360    -0.00800
Br612      Br  0.52000187  0.74585185  0.37960604    -0.00800
C613        C  0.62088713  0.73229323  0.49204780    -0.02000
C614        C  0.56000788  0.74311267  0.49454830     0.07700
C615        C  0.56677146  0.76760400  0.49201851    -0.02100
C616        C  0.62428739  0.77938905  0.50633155    -0.02100
C617        C  0.68632347  0.77007364  0.49915300     0.07900
C618        C  0.68141731  0.74538935  0.49389163    -0.02300
Br619      Br  0.75362112  0.72711077  0.49155546    -0.01600
Br620      Br  0.62500115  0.69880242  0.48674102    -0.00900
Br621      Br  0.60355352  0.79891034  0.56254187    -0.00800
Br622      Br  0.50781043  0.78823571  0.46173295    -0.00800
C623        C  0.88787596  0.74532924  0.45454638    -0.02000
C624        C  0.93121011  0.74443704  0.49720413     0.07700
C625        C  0.92010730  0.76141417  0.53531921    -0.02100
C626        C  0.87096550  0.77770522  0.53078594    -0.02100
C627        C  0.82179891  0.77586092  0.49170984     0.07900
C628        C  0.84404331  0.76313638  0.44922122    -0.02300
Br629      Br  0.83719820  0.77343873  0.38012884    -0.00800
Br630      Br  0.87074739  0.72137525  0.40405051    -0.00900
Br631      Br  0.89219525  0.80561227  0.56937749    -0.00800
Br632      Br  0.96977975  0.76288811  0.59743913    -0.00800
loop_ 
_geom_bond_atom_site_label_1 
_geom_bond_atom_site_label_2 
_geom_bond_distance 
_geom_bond_site_symmetry_2 
_ccdc_geom_bond_type 
C1          C308   1.621       .  S
C1          C594   1.642       .  S
C1          C604   1.609       .  S
C1          C614   1.630       .  S
C2          C258   1.598       .  S
C2          C268   1.599       .  S
C2          C301   1.654       .  S
C2          C311   1.657       .  S
N3            N4   1.320       .  A
N3            C7   1.354       .  A
N3          Cu11   2.090       .  S
N4            C5   1.339       .  A
N4          Cu10   2.061       .  S
C5            C6   1.382       .  A
C5            H8   1.081       .  S
C6            C7   1.391       .  A
C6          C102   1.479   1_556  S
C7            H9   1.082       .  S
Cu10         N13   2.061       .  S
Cu11         N21   2.094       .  S
Cu12         N14   2.096       .  S
Cu12         N20   2.099       .  S
N13          N14   1.321       .  A
N13          C17   1.338       .  A
N14          C15   1.354       .  A
C15          C16   1.390       .  A
C15          H18   1.085       .  S
C16          C17   1.380       .  A
C16          C40   1.475   1_565  S
C17          H19   1.084       .  S
N20          N21   1.325       .  A
N20          C24   1.346       .  A
N21          C22   1.347       .  A
C22          C23   1.389       .  A
C22          H25   1.082       .  S
C23          C24   1.390       .  A
C23         C261   1.503       .  S
C24          H26   1.082       .  S
N27          N28   1.320       .  A
N27          C31   1.357       .  A
N27         Cu35   2.108       .  S
N28          C29   1.338       .  A
N28         Cu34   2.054       .  S
C29          C30   1.379       .  A
C29          H32   1.086       .  S
C30          C31   1.395       .  A
C30         C126   1.481   1_556  S
C31          H33   1.084       .  S
Cu34         N37   2.053       .  S
Cu35         N45   2.113       .  S
Cu36         N38   2.090       .  S
Cu36         N44   2.094       .  S
N37          N38   1.319       .  A
N37          C41   1.337       .  A
N38          C39   1.355       .  A
C39          C40   1.392       .  A
C39          H42   1.084       .  S
C40          C41   1.378       .  A
C41          H43   1.085       .  S
N44          N45   1.329       .  A
N44          C48   1.347       .  A
N45          C46   1.349       .  A
C46          C47   1.388       .  A
C46          H49   1.082       .  S
C47          C48   1.383       .  A
C47         C248   1.491       .  S
C48          H50   1.082       .  S
N51          N52   1.319       .  A
N51          C55   1.359       .  A
N51         Cu59   2.110       .  S
N52          C53   1.335       .  A
N52         Cu58   2.048       .  S
C53          C54   1.380       .  A
C53          H56   1.080       .  S
C54          C55   1.398       .  A
C54         C152   1.486   1_554  S
C55          H57   1.081       .  S
Cu58         N61   2.049       .  S
Cu59         N69   2.115       .  S
Cu60         N62   2.106       .  S
Cu60         N68   2.112       .  S
N61          N62   1.318       .  A
N61          C65   1.338       .  A
N62          C63   1.357       .  A
C63          C64   1.396       .  A
C63          H66   1.082       .  S
C64          C65   1.382       .  A
C64          C88   1.485       .  S
C65          H67   1.076       .  S
N68          N69   1.328       .  A
N68          C72   1.351       .  A
N69         C386   1.348       .  A
C70         N385   1.348       .  A
C70         C387   1.391       .  A
C70         H389   1.081       .  S
C71          C72   1.391       .  A
C71         C386   1.391       .  A
C71         C291   1.507       .  S
C72         H390   1.080       .  S
H73         C386   1.081       .  S
H74         C388   1.080       .  S
N75          N76   1.319       .  A
N75          C79   1.360       .  A
N75         Cu83   2.115       .  S
N76          C77   1.337       .  A
N76         Cu82   2.058       .  S
C77          C78   1.382       .  A
C77          H80   1.082       .  S
C78          C79   1.399       .  A
C78         C492   1.491   1_554  S
C79          H81   1.081       .  S
Cu82         N85   2.059       .  S
Cu83         N93   2.120       .  S
Cu84         N86   2.103       .  S
Cu84         N92   2.107       .  S
N85          N86   1.320       .  A
N85          C89   1.339       .  A
N86          C87   1.356       .  A
C87          C88   1.394       .  A
C87          H90   1.084       .  S
C88          C89   1.383       .  A
C89          H91   1.076       .  S
N92          N93   1.329       .  A
N92          C96   1.351       .  A
N93          C94   1.350       .  A
C94          C95   1.390       .  A
C94          H97   1.082       .  S
C95          C96   1.388       .  A
C95         C241   1.503       .  S
C96          H98   1.081       .  S
N99         N100   1.319       .  A
N99         C103   1.354       .  A
N99        Cu107   2.091       .  S
N100        C101   1.338       .  A
N100       Cu106   2.057       .  S
C101        C102   1.381       .  A
C101        H104   1.083       .  S
C102        C103   1.392       .  A
C103        H105   1.081       .  S
Cu106       N109   2.057       .  S
Cu107       N117   2.095       .  S
Cu108       N110   2.105       .  S
Cu108       N116   2.110       .  S
N109        N110   1.320       .  A
N109        C113   1.338       .  A
N110        C111   1.357       .  A
C111        C112   1.395       .  A
C111        H114   1.083       .  S
C112        C113   1.382       .  A
C112        C136   1.485   1_565  S
C113        H115   1.079       .  S
N116        N117   1.328       .  A
N116        C120   1.348       .  A
N117        C118   1.349       .  A
C118        C119   1.384       .  A
C118        H121   1.082       .  S
C119        C120   1.387       .  A
C119        C271   1.489       .  S
C120        H122   1.082       .  S
N123        N124   1.321       .  A
N123        C127   1.356       .  A
N123       Cu131   2.108       .  S
N124        C125   1.339       .  A
N124       Cu130   2.060       .  S
C125        C126   1.380       .  A
C125        H128   1.086       .  S
C126        C127   1.394       .  A
C127        H129   1.085       .  S
Cu130       N133   2.060       .  S
Cu131       N141   2.113       .  S
Cu132       N134   2.105       .  S
Cu132       N140   2.109       .  S
N133        N134   1.320       .  A
N133        C137   1.338       .  A
N134        C135   1.357       .  A
C135        C136   1.395       .  A
C135        H138   1.081       .  S
C136        C137   1.382       .  A
C137        H139   1.080       .  S
N140        N141   1.329       .  A
N140        C144   1.351       .  A
N141        C142   1.350       .  A
C142        C143   1.388       .  A
C142        H145   1.082       .  S
C143        C144   1.387       .  A
C143        C228   1.497       .  S
C144        H146   1.080       .  S
C147        C201   1.633       .  S
C147        C221   1.648       .  S
C147        C524   1.656       .  S
C147        C554   1.627       .  S
C148        C211   1.651       .  S
C148        C218   1.648       .  S
C148        C231   1.626       .  S
C148        C251   1.610       .  S
N149        N150   1.319       .  A
N149        C153   1.358       .  A
N149       Cu157   2.106       .  S
N150        C151   1.336       .  A
N150       Cu156   2.055       .  S
C151        C152   1.382       .  A
C151        H154   1.080       .  S
C152        C153   1.396       .  A
C153        H155   1.082       .  S
Cu156       N159   2.056       .  S
Cu157       N167   2.112       .  S
Cu158       N160   2.102       .  S
Cu158       N166   2.107       .  S
N159        N160   1.319       .  A
N159        C163   1.337       .  A
N160        C161   1.356       .  A
C161        C162   1.395       .  A
C161        H164   1.084       .  S
C162        C163   1.381       .  A
C162        C502   1.483       .  S
C163        H165   1.083       .  S
N166        N167   1.330       .  A
N166        C170   1.350       .  A
N167        C168   1.349       .  A
C168        C169   1.385       .  A
C168        H171   1.083       .  S
C169        C170   1.383       .  A
C169        C281   1.488       .  S
C170        H172   1.081       .  S
N173        N174   1.319       .  A
N173        C177   1.361       .  A
N173       Cu181   2.117       .  S
N174        C175   1.336       .  A
N174       Cu180   2.055       .  S
C175        C176   1.382       .  A
C175        H178   1.081       .  S
C176        C177   1.400       .  A
C176        C394   1.491   1_556  S
C177        H179   1.081       .  S
Cu180       N183   2.055       .  S
Cu181       N191   2.122       .  S
Cu182       N184   2.098       .  S
Cu182       N190   2.103       .  S
N183        N184   1.319       .  A
N183        C187   1.337       .  A
N184        C185   1.356       .  A
C185        C186   1.395       .  A
C185        H188   1.083       .  S
C186        C187   1.381       .  A
C186        C478   1.483       .  S
C187        H189   1.083       .  S
N190        N191   1.330       .  A
N190        C194   1.350       .  A
N191        C192   1.349       .  A
C192        C193   1.389       .  A
C192        H195   1.083       .  S
C193        C194   1.386       .  A
C193        C198   1.501       .  S
C194        H196   1.082       .  S
C197        C198   1.398       .  A
C197        C202   1.422       .  A
C197       Br204   1.943       .  S
C198        C515   1.398       .  A
C199        C200   1.423       .  A
C199        C514   1.398   1_455  A
C199       Br206   1.950       .  S
C200        C517   1.456   1_455  A
C200       Br205   1.909       .  S
C201        C202   1.464       .  A
C201        C516   1.456       .  A
C202       Br203   1.937       .  S
C207        C208   1.439       .  A
C207        C212   1.443       .  A
C207       Br214   1.943   1_455  S
C208        C463   1.656   1_455  S
C208        C209   1.454       .  A
C209        C210   1.437       .  A
C209       Br216   1.966       .  S
C210        C211   1.442       .  A
C210       Br215   1.923       .  S
C211        C212   1.456       .  A
C212       Br213   1.951       .  S
C217        C218   1.428       .  A
C217        C222   1.423       .  A
C217       Br224   1.930       .  S
C218        C219   1.452       .  A
C219        C220   1.436       .  A
C219       Br226   1.970       .  S
C220        C221   1.440       .  A
C220       Br225   1.912       .  S
C221        C222   1.448       .  A
C222       Br223   1.950       .  S
C227        C228   1.399       .  A
C227        C232   1.422       .  A
C227       Br234   1.948       .  S
C228        C229   1.399       .  A
C229        C230   1.422       .  A
C229       Br236   1.939       .  S
C230        C231   1.463       .  A
C230       Br235   1.944       .  S
C231        C232   1.452       .  A
C232       Br233   1.912       .  S
C237        C242   1.424       .  A
C237        C554   1.457       .  A
C237       Br244   1.918       .  S
C238        C463   1.627       .  S
C238        C239   1.460   1_655  A
C238        C553   1.458       .  A
C239        C240   1.421       .  A
C239       Br246   1.939       .  S
C240        C241   1.400       .  A
C240       Br245   1.941       .  S
C241        C558   1.400   1_455  A
C242        C557   1.400       .  A
C242       Br243   1.949       .  S
C247        C248   1.400       .  A
C247        C252   1.410       .  A
C247       Br254   1.934       .  S
C248        C249   1.405       .  A
C249        C250   1.416       .  A
C249       Br256   1.939       .  S
C250        C251   1.450       .  A
C250       Br255   1.933       .  S
C251        C252   1.437       .  A
C252       Br253   1.910       .  S
C257        C258   1.452       .  A
C257        C262   1.420       .  A
C257       Br264   1.953       .  S
C258        C259   1.436       .  A
C259        C260   1.418       .  A
C259       Br266   1.929       .  S
C260        C261   1.410       .  A
C260       Br265   1.937       .  S
C261        C262   1.410       .  A
C262       Br263   1.946       .  S
C267        C268   1.444       .  A
C267        C272   1.416       .  A
C267       Br274   1.909       .  S
C268        C269   1.439       .  A
C269        C270   1.413       .  A
C269       Br276   1.925       .  S
C270        C271   1.403       .  A
C270       Br275   1.931       .  S
C271        C272   1.402       .  A
C272       Br273   1.940       .  S
C277        C282   1.424       .  A
C277        C594   1.449       .  A
C277       Br284   1.913       .  S
C278        C317   1.642       .  S
C278        C279   1.438   1_655  A
C278        C593   1.448       .  A
C279        C280   1.409       .  A
C279       Br286   1.928       .  S
C280        C281   1.396       .  A
C280       Br285   1.931       .  S
C281        C598   1.399   1_455  A
C282        C597   1.399       .  A
C282       Br283   1.940       .  S
C287        C292   1.423       .  A
C287        C604   1.441       .  A
C287       Br294   1.922       .  S
C288        C317   1.609       .  S
C288        C289   1.440   1_655  A
C288        C603   1.441       .  A
C289        C290   1.413       .  A
C289       Br296   1.924       .  S
C290        C291   1.407       .  A
C290       Br295   1.936       .  S
C291        C608   1.412   1_455  A
C292        C607   1.412       .  A
C292       Br293   1.941       .  S
C297        C298   1.446       .  A
C297        C302   1.446       .  A
C297       Br304   1.966       .  S
C298        C317   1.630   1_455  S
C298        C299   1.432       .  A
C299        C300   1.404       .  A
C299       Br306   1.935       .  S
C300        C301   1.440       .  A
C300       Br305   1.934       .  S
C301        C302   1.447       .  A
C302       Br303   1.888       .  S
C307        C308   1.446       .  A
C307        C312   1.424       .  A
C307       Br314   1.951       .  S
C308        C309   1.439       .  A
C309        C310   1.436       .  A
C309       Br316   1.940       .  S
C310        C311   1.454       .  A
C310       Br315   1.952       .  S
C311        C312   1.436       .  A
C312       Br313   1.935       .  S
C317        C624   1.621       .  S
C318        C574   1.597       .  S
C318        C584   1.599       .  S
C318        C617   1.654       .  S
C318        C627   1.657       .  S
N319        N320   1.319       .  A
N319        C323   1.354       .  A
N319       Cu327   2.090       .  S
N320        C321   1.339       .  A
N320       Cu326   2.061       .  S
C321        C322   1.382       .  A
C321        H324   1.081       .  S
C322        C323   1.391       .  A
C322        C418   1.479   1_556  S
C323        H325   1.082       .  S
Cu326       N329   2.061       .  S
Cu327       N337   2.094       .  S
Cu328       N330   2.096       .  S
Cu328       N336   2.098       .  S
N329        N330   1.321       .  A
N329        C333   1.338       .  A
N330        C331   1.354       .  A
C331        C332   1.390       .  A
C331        H334   1.085       .  S
C332        C333   1.380       .  A
C332        C356   1.475   1_565  S
C333        H335   1.084       .  S
N336        N337   1.325       .  A
N336        C340   1.346       .  A
N337        C338   1.347       .  A
C338        C339   1.389       .  A
C338        H341   1.082       .  S
C339        C340   1.390       .  A
C339        C577   1.502       .  S
C340        H342   1.082       .  S
N343        N344   1.320       .  A
N343        C347   1.357       .  A
N343       Cu351   2.108       .  S
N344        C345   1.337       .  A
N344       Cu350   2.053       .  S
C345        C346   1.378       .  A
C345        H348   1.086       .  S
C346        C347   1.395       .  A
C346        C442   1.480   1_556  S
C347        H349   1.084       .  S
Cu350       N353   2.052       .  S
Cu351       N361   2.112       .  S
Cu352       N354   2.090       .  S
Cu352       N360   2.094       .  S
N353        N354   1.319       .  A
N353        C357   1.337       .  A
N354        C355   1.354       .  A
C355        C356   1.392       .  A
C355        H358   1.084       .  S
C356        C357   1.378       .  A
C357        H359   1.085       .  S
N360        N361   1.329       .  A
N360        C364   1.346       .  A
N361        C362   1.349       .  A
C362        C363   1.387       .  A
C362        H365   1.082       .  S
C363        C364   1.383       .  A
C363        C564   1.490       .  S
C364        H366   1.082       .  S
N367        N368   1.319       .  A
N367        C371   1.359       .  A
N367       Cu375   2.110       .  S
N368        C369   1.335       .  A
N368       Cu374   2.048       .  S
C369        C370   1.380       .  A
C369        H372   1.080       .  S
C370        C371   1.398       .  A
C370        C468   1.486   1_554  S
C371        H373   1.081       .  S
Cu374       N377   2.049       .  S
Cu375       N385   2.115       .  S
Cu376       N378   2.106       .  S
Cu376       N384   2.112       .  S
N377        N378   1.318       .  A
N377        C381   1.338       .  A
N378        C379   1.358       .  A
C379        C380   1.396       .  A
C379        H382   1.082       .  S
C380        C381   1.382       .  A
C380        C404   1.484       .  S
C381        H383   1.076       .  S
N384        N385   1.328       .  A
N384        C388   1.351       .  A
C387        C388   1.391       .  A
C387        C607   1.507       .  S
N391        N392   1.319       .  A
N391        C395   1.360       .  A
N391       Cu399   2.114       .  S
N392        C393   1.337       .  A
N392       Cu398   2.059       .  S
C393        C394   1.383       .  A
C393        H396   1.081       .  S
C394        C395   1.399       .  A
C395        H397   1.081       .  S
Cu398       N401   2.060       .  S
Cu399       N409   2.119       .  S
Cu400       N402   2.102       .  S
Cu400       N408   2.106       .  S
N401        N402   1.320       .  A
N401        C405   1.339       .  A
N402        C403   1.356       .  A
C403        C404   1.394       .  A
C403        H406   1.084       .  S
C404        C405   1.383       .  A
C405        H407   1.076       .  S
N408        N409   1.329       .  A
N408        C412   1.350       .  A
N409        C410   1.350       .  A
C410        C411   1.389       .  A
C410        H413   1.082       .  S
C411        C412   1.387       .  A
C411        C557   1.502       .  S
C412        H414   1.081       .  S
N415        N416   1.320       .  A
N415        C419   1.354       .  A
N415       Cu423   2.092       .  S
N416        C417   1.338       .  A
N416       Cu422   2.058       .  S
C417        C418   1.381       .  A
C417        H420   1.083       .  S
C418        C419   1.392       .  A
C419        H421   1.081       .  S
Cu422       N425   2.058       .  S
Cu423       N433   2.096       .  S
Cu424       N426   2.105       .  S
Cu424       N432   2.109       .  S
N425        N426   1.320       .  A
N425        C429   1.338       .  A
N426        C427   1.357       .  A
C427        C428   1.395       .  A
C427        H430   1.083       .  S
C428        C429   1.382       .  A
C428        C452   1.485   1_565  S
C429        H431   1.079       .  S
N432        N433   1.328       .  A
N432        C436   1.347       .  A
N433        C434   1.349       .  A
C434        C435   1.384       .  A
C434        H437   1.082       .  S
C435        C436   1.387       .  A
C435        C587   1.490       .  S
C436        H438   1.082       .  S
N439        N440   1.321       .  A
N439        C443   1.356       .  A
N439       Cu447   2.106       .  S
N440        C441   1.338       .  A
N440       Cu446   2.060       .  S
C441        C442   1.380       .  A
C441        H444   1.086       .  S
C442        C443   1.393       .  A
C443        H445   1.085       .  S
Cu446       N449   2.060       .  S
Cu447       N457   2.110       .  S
Cu448       N450   2.106       .  S
Cu448       N456   2.110       .  S
N449        N450   1.320       .  A
N449        C453   1.339       .  A
N450        C451   1.357       .  A
C451        C452   1.395       .  A
C451        H454   1.081       .  S
C452        C453   1.382       .  A
C453        H455   1.080       .  S
N456        N457   1.328       .  A
N456        C460   1.351       .  A
N457        C458   1.349       .  A
C458        C459   1.387       .  A
C458        H461   1.082       .  S
C459        C460   1.387       .  A
C459        C544   1.497       .  S
C460        H462   1.080       .  S
C463        C517   1.633       .  S
C463        C537   1.647       .  S
C464        C527   1.651       .  S
C464        C534   1.648       .  S
C464        C547   1.626       .  S
C464        C567   1.610       .  S
N465        N466   1.319       .  A
N465        C469   1.358       .  A
N465       Cu473   2.106       .  S
N466        C467   1.336       .  A
N466       Cu472   2.056       .  S
C467        C468   1.382       .  A
C467        H470   1.080       .  S
C468        C469   1.396       .  A
C469        H471   1.082       .  S
Cu472       N475   2.057       .  S
Cu473       N483   2.112       .  S
Cu474       N476   2.100       .  S
Cu474       N482   2.105       .  S
N475        N476   1.319       .  A
N475        C479   1.337       .  A
N476        C477   1.356       .  A
C477        C478   1.394       .  A
C477        H480   1.084       .  S
C478        C479   1.381       .  A
C479        H481   1.083       .  S
N482        N483   1.330       .  A
N482        C486   1.350       .  A
N483        C484   1.349       .  A
C484        C485   1.385       .  A
C484        H487   1.083       .  S
C485        C486   1.383       .  A
C485        C597   1.488       .  S
C486        H488   1.081       .  S
N489        N490   1.319       .  A
N489        C493   1.360       .  A
N489       Cu497   2.114   1_455  S
N490        C491   1.337       .  A
N490       Cu496   2.058       .  S
C491        C492   1.382       .  A
C491        H494   1.081       .  S
C492        C493   1.399       .  A
C493        H495   1.081   1_455  S
Cu496       N499   2.059       .  S
Cu497       N507   2.119       .  S
Cu498       N500   2.096   1_655  S
Cu498       N506   2.101       .  S
N499        N500   1.319       .  A
N499        C503   1.337       .  A
N500        C501   1.356       .  A
C501        C502   1.394       .  A
C501        H504   1.083       .  S
C502        C503   1.382       .  A
C503        H505   1.083       .  S
N506        N507   1.329       .  A
N506        C510   1.350       .  A
N507        C508   1.349       .  A
C508        C509   1.389       .  A
C508        H511   1.083       .  S
C509        C510   1.386       .  A
C509        C514   1.500       .  S
C510        H512   1.082       .  S
C513        C514   1.397       .  A
C513        C518   1.422       .  A
C513       Br520   1.943       .  S
C515        C516   1.424       .  A
C515       Br522   1.950       .  S
C516       Br521   1.910       .  S
C517        C518   1.464       .  A
C518       Br519   1.936       .  S
C523        C524   1.439       .  A
C523        C528   1.443       .  A
C523       Br530   1.943       .  S
C524        C525   1.454       .  A
C525        C526   1.437       .  A
C525       Br532   1.967       .  S
C526        C527   1.442       .  A
C526       Br531   1.923       .  S
C527        C528   1.456       .  A
C528       Br529   1.950       .  S
C533        C534   1.428       .  A
C533        C538   1.423       .  A
C533       Br540   1.929       .  S
C534        C535   1.452       .  A
C535        C536   1.436       .  A
C535       Br542   1.970       .  S
C536        C537   1.440       .  A
C536       Br541   1.913       .  S
C537        C538   1.448       .  A
C538       Br539   1.950       .  S
C543        C544   1.399       .  A
C543        C548   1.422       .  A
C543       Br550   1.948       .  S
C544        C545   1.398       .  A
C545        C546   1.422       .  A
C545       Br552   1.939       .  S
C546        C547   1.463       .  A
C546       Br551   1.944       .  S
C547        C548   1.452       .  A
C548       Br549   1.912       .  S
C553        C558   1.425       .  A
C553       Br560   1.919       .  S
C554        C555   1.460       .  A
C555        C556   1.421       .  A
C555       Br562   1.938       .  S
C556        C557   1.399       .  A
C556       Br561   1.941       .  S
C558       Br559   1.949       .  S
C563        C564   1.400       .  A
C563        C568   1.410       .  A
C563       Br570   1.934       .  S
C564        C565   1.405       .  A
C565        C566   1.416       .  A
C565       Br572   1.939       .  S
C566        C567   1.450       .  A
C566       Br571   1.933       .  S
C567        C568   1.436       .  A
C568       Br569   1.910       .  S
C573        C574   1.453       .  A
C573        C578   1.420       .  A
C573       Br580   1.953       .  S
C574        C575   1.436       .  A
C575        C576   1.418       .  A
C575       Br582   1.929       .  S
C576        C577   1.409       .  A
C576       Br581   1.937       .  S
C577        C578   1.410       .  A
C578       Br579   1.946       .  S
C583        C584   1.444       .  A
C583        C588   1.416       .  A
C583       Br590   1.909       .  S
C584        C585   1.439       .  A
C585        C586   1.413       .  A
C585       Br592   1.925       .  S
C586        C587   1.403       .  A
C586       Br591   1.931       .  S
C587        C588   1.402       .  A
C588       Br589   1.940       .  S
C593        C598   1.424       .  A
C593       Br600   1.912       .  S
C594        C595   1.438       .  A
C595        C596   1.409       .  A
C595       Br602   1.929       .  S
C596        C597   1.396       .  A
C596       Br601   1.931       .  S
C598       Br599   1.940       .  S
C603        C608   1.424       .  A
C603       Br610   1.922       .  S
C604        C605   1.440       .  A
C605        C606   1.413       .  A
C605       Br612   1.924       .  S
C606        C607   1.407       .  A
C606       Br611   1.936       .  S
C608       Br609   1.940       .  S
C613        C614   1.446       .  A
C613        C618   1.446       .  A
C613       Br620   1.966       .  S
C614        C615   1.433       .  A
C615        C616   1.404       .  A
C615       Br622   1.936       .  S
C616        C617   1.440       .  A
C616       Br621   1.934       .  S
C617        C618   1.446       .  A
C618       Br619   1.888       .  S
C623        C624   1.446       .  A
C623        C628   1.424       .  A
C623       Br630   1.950       .  S
C624        C625   1.439       .  A
C625        C626   1.436       .  A
C625       Br632   1.939       .  S
C626        C627   1.454       .  A
C626       Br631   1.952       .  S
C627        C628   1.436       .  A
C628       Br629   1.936       .  S
