geometry optimzed in LAMMPS
_audit_creation_date              2020-11-30 
_audit_creation_method            'lammps2cif' 
_symmetry_space_group_name_H-M    'P1' 
_symmetry_Int_Tables_number       1 
_symmetry_cell_setting            triclinic 
loop_ 
_symmetry_equiv_pos_as_xyz 
  x,y,z 
_cell_length_a                    58.74648345 
_cell_length_b                    58.973662740027905 
_cell_length_c                    58.868028448222645 
_cell_angle_alpha                 90.03439509672359 
_cell_angle_beta                  90.0093720425672 
_cell_angle_gamma                 89.93609667872047 
loop_ 
_atom_site_label 
_atom_site_type_symbol 
_atom_site_fract_x 
_atom_site_fract_y 
_atom_site_fract_z 
_atom_site_charge 
N1          N  0.65605905  0.19266913  0.87855728    -0.27000
N2          N  0.64316310  0.19653924  0.86052185    -0.34900
C3          C  0.63972431  0.21899966  0.85849992     0.01300
C4          C  0.65129468  0.22979064  0.87583389     0.07300
C5          C  0.66152177  0.21264491  0.88819066    -0.05800
H6          H  0.63081971  0.22695454  0.84453416     0.08000
H7          H  0.67251722  0.21455663  0.90279451     0.09200
Cu8        Cu  0.63469237  0.17211951  0.83658957     0.44200
Cu9        Cu  0.66633373  0.16055490  0.88912751     0.42000
Cu10       Cu  0.65778370  0.11688295  0.84777988     0.43900
N11         N  0.63825312  0.14734293  0.81182381    -0.34400
N12         N  0.64802397  0.12755302  0.81585551    -0.28700
C13         C  0.65249134  0.11719423  0.79601641    -0.04800
C14         C  0.64485798  0.13098436  0.77869269     0.07400
C15         C  0.63581190  0.14991635  0.78924608     0.01200
H16         H  0.66173085  0.10142627  0.79431959     0.08900
H17         H  0.63000338  0.16530078  0.78109292     0.08000
N18         N  0.66786995  0.11036739  0.88073897    -0.35900
N19         N  0.67155290  0.12632438  0.89605375    -0.28100
C20         C  0.67662953  0.11639441  0.91604583    -0.03300
C21         C  0.67600799  0.09305035  0.91310541     0.05300
C22         C  0.67034226  0.08994770  0.89049049     0.03400
H23         H  0.67901916  0.12547255  0.93182602     0.08500
H24         H  0.66736506  0.07399399  0.88192608     0.07300
N25         N  0.88258720  0.20354654  0.64970807    -0.27000
N26         N  0.86191805  0.20818504  0.64214623    -0.34900
C27         C  0.85982780  0.23075196  0.63951215     0.01300
C28         C  0.88004751  0.24075001  0.64610230     0.07300
C29         C  0.89406708  0.22306700  0.65257671    -0.05800
H30         H  0.84420200  0.23933020  0.63497504     0.08000
H31         H  0.91101408  0.22433600  0.65961989     0.09200
Cu32       Cu  0.83620025  0.18420355  0.64091051     0.44200
Cu33       Cu  0.89325943  0.17097363  0.65752835     0.42000
Cu34       Cu  0.84883186  0.12922572  0.66605591     0.43900
N35         N  0.81175710  0.16039934  0.64951767    -0.34400
N36         N  0.81617935  0.14102972  0.65995420    -0.28700
C37         C  0.79640928  0.13096978  0.66555945    -0.04800
C38         C  0.77879968  0.14456722  0.65800090     0.07400
C39         C  0.78909771  0.16300689  0.64786481     0.01200
H40         H  0.79499264  0.11503439  0.67452208     0.08900
H41         H  0.78076533  0.17773520  0.64075231     0.08000
N42         N  0.88324859  0.12175339  0.66762952    -0.35900
N43         N  0.89935358  0.13700749  0.66423226    -0.28100
C44         C  0.91969246  0.12663789  0.66464100    -0.03300
C45         C  0.91633600  0.10373690  0.66858006     0.05300
C46         C  0.89295694  0.10125017  0.67036046     0.03400
H47         H  0.93576357  0.13510908  0.66170527     0.08500
H48         H  0.88354990  0.08562901  0.67219383     0.07300
N49         N  0.81384888  0.35956442  0.87038218    -0.27000
N50         N  0.80906044  0.36918546  0.85064481    -0.34900
C51         C  0.78635107  0.36975707  0.84792401     0.01300
C52         C  0.77641626  0.35971540  0.86664344     0.07300
C53         C  0.79428949  0.35336835  0.88053058    -0.05800
H54         H  0.77778640  0.37586300  0.83285858     0.08000
H55         H  0.79319954  0.34467021  0.89665710     0.09200
Cu56       Cu  0.83316081  0.37762902  0.82633050     0.44200
Cu57       Cu  0.84668043  0.35486150  0.88251698     0.42000
Cu58       Cu  0.89049426  0.36256722  0.84031852     0.43900
N59         N  0.85905979  0.37599917  0.80244839    -0.34400
N60         N  0.87984666  0.36907173  0.80752424    -0.28700
C61         C  0.89157987  0.36565611  0.78822107    -0.04800
C62         C  0.87760970  0.37109337  0.77017317     0.07400
C63         C  0.85713718  0.37765686  0.77973100     0.01200
H64         H  0.90866898  0.35888473  0.78738096     0.08900
H65         H  0.84150291  0.38147586  0.77082567     0.08000
N66         N  0.89707151  0.35665176  0.87428178    -0.35900
N67         N  0.88118948  0.35363275  0.88986654    -0.28100
C68         C  0.89124503  0.35103510  0.91025545    -0.03300
C69         C  0.91461707  0.35249562  0.90731353     0.05300
C70         C  0.91758448  0.35609777  0.88426001     0.03400
H71         H  0.88207218  0.34927752  0.92608930     0.08500
H72         H  0.93351376  0.35848980  0.87536477     0.07300
N73         N  0.71477832  0.35571365  0.86545590    -0.27000
N74         N  0.71978299  0.33739409  0.87740899    -0.34900
C75         C  0.74246221  0.33652249  0.88059201     0.01300
C76         C  0.75209878  0.35501374  0.86983505     0.07300
C77         C  0.73410339  0.36678038  0.86039186    -0.05800
H78         H  0.75135507  0.32275081  0.88886458     0.08000
H79         H  0.73499781  0.38203419  0.85025070     0.09200
Cu80       Cu  0.69600884  0.31256565  0.88526052     0.44200
Cu81       Cu  0.68203068  0.36484333  0.85628128     0.42000
Cu82       Cu  0.63842063  0.32321200  0.86533854     0.43900
N83         N  0.67110274  0.28771927  0.88273344    -0.34400
N84         N  0.65062451  0.29138507  0.87412524    -0.28700
C85         C  0.64008354  0.27136643  0.87113337    -0.04800
C86         C  0.65448593  0.25435142  0.87852461     0.07400
C87         C  0.67394492  0.26529145  0.88586940     0.01200
H88         H  0.62348652  0.26932025  0.86347371     0.08900
H89         H  0.68962355  0.25744303  0.89143680     0.08000
N90         N  0.63151156  0.35688233  0.85787886    -0.35900
N91         N  0.64763600  0.37192634  0.85373604    -0.28100
C92         C  0.63799072  0.39223358  0.84991433    -0.03300
C93         C  0.61467631  0.38996350  0.85209723     0.05300
C94         C  0.61113084  0.36729327  0.85707631     0.03400
H95         H  0.64732130  0.40770136  0.84665522     0.08500
H96         H  0.59499941  0.35895313  0.85991540     0.07300
N97         N  0.88209419  0.30227472  0.64574820    -0.27000
N98         N  0.89060354  0.29800864  0.66609461    -0.34900
C99         C  0.89230742  0.27541695  0.66881194     0.01300
C100        C  0.88413190  0.26506560  0.64938067     0.07300
C101        C  0.87764442  0.28254386  0.63517116    -0.05800
H102        H  0.89755754  0.26714918  0.68434875     0.08000
H103        H  0.86980422  0.28105014  0.61861768     0.09200
Cu104      Cu  0.89507850  0.32291043  0.69066127     0.44200
Cu105      Cu  0.87599907  0.33472421  0.63387715     0.42000
Cu106      Cu  0.87395796  0.37918811  0.67576754     0.43900
N107        N  0.88941764  0.34877466  0.71398080    -0.34400
N108        N  0.88037635  0.36863744  0.70866778    -0.28700
C109        C  0.87542230  0.37998086  0.72786862    -0.04800
C110        C  0.88205579  0.36680083  0.74606564     0.07400
C111        C  0.89090684  0.34718093  0.73672686     0.01200
H112        H  0.86711314  0.39633244  0.72851539     0.08900
H113        H  0.89648715  0.33223568  0.74579015     0.08000
N114        N  0.87000892  0.38493450  0.64132774    -0.35900
N115        N  0.87136974  0.36858977  0.62601389    -0.28100
C116        C  0.87017722  0.37773972  0.60517698    -0.03300
C117        C  0.86757128  0.40090018  0.60748666     0.05300
C118        C  0.86758549  0.40495192  0.63062239     0.03400
H119        H  0.87174834  0.36829745  0.58948857     0.08500
H120        H  0.86715912  0.42127709  0.63899615     0.07300
N121        N  0.71705269  0.14492414  0.65796264    -0.27000
N122        N  0.72094945  0.13258240  0.67632241    -0.34900
C123        C  0.74356951  0.12976745  0.67871850     0.01300
C124        C  0.75428428  0.14115248  0.66120166     0.07300
C125        C  0.73701315  0.15057867  0.64841261    -0.05800
H126        H  0.75161331  0.12118150  0.69282303     0.08000
H127        H  0.73879507  0.16100129  0.63341406     0.09200
Cu128      Cu  0.69571629  0.12337587  0.69926539     0.44200
Cu129      Cu  0.68503028  0.15366712  0.64629037     0.42000
Cu130      Cu  0.63948449  0.14350204  0.68520736     0.43900
N131        N  0.66902363  0.12495084  0.72237623    -0.34400
N132        N  0.64894368  0.13378692  0.71740516    -0.28700
C133        C  0.63682604  0.13639448  0.73658171    -0.04800
C134        C  0.64976329  0.12845524  0.75443475     0.07400
C135        C  0.67003448  0.12123512  0.74489541     0.01200
H136        H  0.62022124  0.14425148  0.73752475     0.08900
H137        H  0.68504704  0.11552098  0.75385433     0.08000
N138        N  0.63441480  0.15069311  0.65141164    -0.35900
N139        N  0.65111629  0.15505642  0.63706391    -0.28100
C140        C  0.64236390  0.15764806  0.61613110    -0.03300
C141        C  0.61908504  0.15435798  0.61741581     0.05300
C142        C  0.61461450  0.15017781  0.64006500     0.03400
H143        H  0.65232163  0.16056031  0.60094812     0.08500
H144        H  0.59828789  0.14671628  0.64776480     0.07300
N145        N  0.22312454  0.34859819  0.86586898    -0.27000
N146        N  0.22723860  0.35835608  0.84605769    -0.34900
C147        C  0.24986737  0.36010199  0.84317165     0.01300
C148        C  0.26046119  0.35074104  0.86190413     0.07300
C149        C  0.24305825  0.34356337  0.87594966    -0.05800
H150        H  0.25798019  0.36667605  0.82806409     0.08000
H151        H  0.24472927  0.33513718  0.89217204     0.09200
Cu152      Cu  0.20242971  0.36575054  0.82210929     0.44200
Cu153      Cu  0.19068744  0.34222939  0.87823149     0.42000
Cu154      Cu  0.14601905  0.34782503  0.83623449     0.43900
N155        N  0.17646387  0.36337275  0.79838017    -0.34400
N156        N  0.15611442  0.35519931  0.80329056    -0.28700
C157        C  0.14438825  0.35215586  0.78387488    -0.04800
C158        C  0.15791071  0.35917738  0.76598398     0.07400
C159        C  0.17808429  0.36624685  0.77577266     0.01200
H160        H  0.12753167  0.34489477  0.78282877     0.08900
H161        H  0.19335106  0.37151892  0.76700933     0.08000
N162        N  0.14009757  0.34288329  0.87062099    -0.35900
N163        N  0.15630349  0.34020591  0.88598604    -0.28100
C164        C  0.14668633  0.33851571  0.90668816    -0.03300
C165        C  0.12334694  0.34040460  0.90415951     0.05300
C166        C  0.11981194  0.34328925  0.88113059     0.03400
H167        H  0.15605128  0.33748063  0.92248141     0.08500
H168        H  0.10371720  0.34629425  0.87272041     0.07300
N169        N  0.16090532  0.19693264  0.64866517    -0.27000
N170        N  0.18094967  0.20110776  0.63939391    -0.34900
C171        C  0.18279291  0.22355942  0.63570875     0.01300
C172        C  0.16304317  0.23383061  0.64336599     0.07300
C173        C  0.14960763  0.21651294  0.65154156    -0.05800
H174        H  0.19788778  0.23188616  0.62935372     0.08000
H175        H  0.13303303  0.21803618  0.65936580     0.09200
Cu176      Cu  0.20596831  0.17642677  0.63629021     0.44200
Cu177      Cu  0.14980641  0.16499501  0.65722925     0.42000
Cu178      Cu  0.19196209  0.12129379  0.66138049     0.43900
N179        N  0.22974085  0.15152337  0.64397362    -0.34400
N180        N  0.22496107  0.13237869  0.65468818    -0.28700
C181        C  0.24460004  0.12196699  0.66027706    -0.04800
C182        C  0.26246124  0.13500949  0.65234187     0.07400
C183        C  0.25245334  0.15352340  0.64201949     0.01200
H184        H  0.24577988  0.10624700  0.66964288     0.08900
H185        H  0.26105367  0.16808467  0.63491047     0.08000
N186        N  0.15708794  0.11494215  0.66236359    -0.35900
N187        N  0.14173015  0.13120793  0.66043964    -0.28100
C188        C  0.12085031  0.12199595  0.65956772    -0.03300
C189        C  0.12307675  0.09872037  0.66101803     0.05300
C190        C  0.14628080  0.09483171  0.66303562     0.03400
H191        H  0.10524837  0.13161352  0.65799392     0.08500
H192        H  0.15470691  0.07854555  0.66415296     0.07300
N193        N  0.38313486  0.19096547  0.88028436    -0.27000
N194        N  0.39611015  0.19416952  0.86220852    -0.34900
C195        C  0.39998991  0.21647274  0.85965153     0.01300
C196        C  0.38867404  0.22793201  0.87671758     0.07300
C197        C  0.37811752  0.21127741  0.88950692    -0.05800
H198        H  0.40888912  0.22387856  0.84540368     0.08000
H199        H  0.36706269  0.21376548  0.90397997     0.09200
Cu200      Cu  0.40363463  0.16919169  0.83863873     0.44200
Cu201      Cu  0.37240135  0.15903624  0.89084102     0.42000
Cu202      Cu  0.37725566  0.11535208  0.84779487     0.43900
N203        N  0.39851310  0.14584038  0.81286701    -0.34400
N204        N  0.38710412  0.12678505  0.81592361    -0.28700
C205        C  0.38248512  0.11756716  0.79552630    -0.04800
C206        C  0.39174388  0.13134559  0.77889535     0.07400
C207        C  0.40186730  0.14905824  0.79048352     0.01200
H208        H  0.37241077  0.10245330  0.79296352     0.08900
H209        H  0.40931706  0.16412095  0.78314823     0.08000
N210        N  0.37208556  0.10859242  0.88202718    -0.35900
N211        N  0.36951551  0.12452610  0.89764611    -0.28100
C212        C  0.36719483  0.11459124  0.91809600    -0.03300
C213        C  0.36883694  0.09133843  0.91526344     0.05300
C214        C  0.37182320  0.08814390  0.89216697     0.03400
H215        H  0.36524270  0.12364892  0.93397146     0.08500
H216        H  0.37363068  0.07215660  0.88334224     0.07300
N217        N  0.32226590  0.35068703  0.86139090    -0.27000
N218        N  0.31836169  0.33298661  0.87458554    -0.34900
C219        C  0.29575709  0.33072851  0.87748456     0.01300
C220        C  0.28502424  0.34764533  0.86523112     0.07300
C221        C  0.30229926  0.35993789  0.85518424    -0.05800
H222        H  0.28773311  0.31707038  0.88673521     0.08000
H223        H  0.30051642  0.37441902  0.84407124     0.09200
Cu224      Cu  0.34371030  0.31051035  0.88432891     0.44200
Cu225      Cu  0.35453574  0.36155152  0.85273067     0.42000
Cu226      Cu  0.39924474  0.32056270  0.85852911     0.43900
N227        N  0.36901669  0.28611338  0.88169520    -0.34400
N228        N  0.38846347  0.28928766  0.87081745    -0.28700
C229        C  0.39900637  0.26916692  0.86838550    -0.04800
C230        C  0.38565970  0.25263151  0.87839278     0.07400
C231        C  0.36685577  0.26397607  0.88676715     0.01200
H232        H  0.41475096  0.26664811  0.85921826     0.08900
H233        H  0.35184734  0.25646591  0.89424199     0.08000
N234        N  0.40521445  0.35473551  0.85217281    -0.35900
N235        N  0.38864359  0.36985476  0.85075603    -0.28100
C236        C  0.39770555  0.39074270  0.84945102    -0.03300
C237        C  0.42111068  0.38864083  0.84985994     0.05300
C238        C  0.42534303  0.36560702  0.85139130     0.03400
H239        H  0.38797384  0.40629849  0.84856152     0.08500
H240        H  0.44179253  0.35745492  0.85277494     0.07300
N241        N  0.32428184  0.13436449  0.65303174    -0.27000
N242        N  0.31993146  0.12534108  0.67309752    -0.34900
C243        C  0.29725490  0.12311883  0.67550870     0.01300
C244        C  0.28692440  0.13149377  0.65612808     0.07300
C245        C  0.30453146  0.13858308  0.64228581    -0.05800
H246        H  0.28889427  0.11726938  0.69077971     0.08000
H247        H  0.30309477  0.14660511  0.62583826     0.09200
Cu248      Cu  0.34503120  0.12057277  0.69741217     0.44200
Cu249      Cu  0.35695264  0.14093609  0.64179160     0.42000
Cu250      Cu  0.40138098  0.14368647  0.68444754     0.43900
N251        N  0.37058774  0.12526703  0.72125551    -0.34400
N252        N  0.39035255  0.13518440  0.71707622    -0.28700
C253        C  0.40132326  0.13842612  0.73693476    -0.04800
C254        C  0.38794154  0.12977648  0.75425139     0.07400
C255        C  0.36867403  0.12153118  0.74369358     0.01200
H256        H  0.41764704  0.14668808  0.73866038     0.08900
H257        H  0.35374353  0.11458371  0.75184074     0.08000
N258        N  0.40742777  0.14597728  0.64956332    -0.35900
N259        N  0.39114745  0.14414665  0.63414922    -0.28100
C260        C  0.40046276  0.14446941  0.61329681    -0.03300
C261        C  0.42374062  0.14677600  0.61559777     0.05300
C262        C  0.42757646  0.14789231  0.63880951     0.03400
H263        H  0.39090093  0.14344072  0.59761715     0.08500
H264        H  0.44386139  0.14948483  0.64724137     0.07300
N265        N  0.15982757  0.29522532  0.64065846    -0.27000
N266        N  0.14886950  0.29131398  0.65989429    -0.34900
C267        C  0.14747646  0.26881468  0.66314284     0.01300
C268        C  0.15842577  0.25814865  0.64534366     0.07300
C269        C  0.16612001  0.27531993  0.63140908    -0.05800
H270        H  0.14049621  0.26088624  0.67816212     0.08000
H271        H  0.17599489  0.27353763  0.61601295     0.09200
Cu272      Cu  0.14099564  0.31605549  0.68366541     0.44200
Cu273      Cu  0.16695552  0.32729763  0.62843147     0.42000
Cu274      Cu  0.16575624  0.37024179  0.67188284     0.43900
N275        N  0.14605409  0.34054061  0.70842497    -0.34400
N276        N  0.15677827  0.35979479  0.70430830    -0.28700
C277        C  0.16170985  0.36995357  0.72417269    -0.04800
C278        C  0.15336860  0.35659994  0.74157659     0.07400
C279        C  0.14345963  0.33813205  0.73101282     0.01200
H280        H  0.17144372  0.38541076  0.72584544     0.08900
H281        H  0.13674286  0.32314641  0.73917058     0.08000
N282        N  0.17091696  0.37708805  0.63771168    -0.35900
N283        N  0.17124526  0.36142062  0.62167309    -0.28100
C284        C  0.17278338  0.37157317  0.60126612    -0.03300
C285        C  0.17345426  0.39483192  0.60462173     0.05300
C286        C  0.17225079  0.39761358  0.62797111     0.03400
H287        H  0.17195277  0.36265688  0.58524656     0.08500
H288        H  0.17149908  0.41345271  0.63721310     0.07300
N289        N  0.37743225  0.79246070  0.87086726    -0.27000
N290        N  0.38844408  0.78765532  0.85188046    -0.34900
C291        C  0.39075531  0.76502804  0.85000800     0.01300
C292        C  0.38041147  0.75500739  0.86854263     0.07300
C293        C  0.37201923  0.77287997  0.88138849    -0.05800
H294        H  0.39812675  0.75646599  0.83551541     0.08000
H295        H  0.36244453  0.77171885  0.89702972     0.09200
Cu296      Cu  0.39557724  0.81175809  0.82732410     0.44200
Cu297      Cu  0.37028745  0.82579407  0.88074893     0.42000
Cu298      Cu  0.37548750  0.86939412  0.83746946     0.43900
N299        N  0.39009110  0.83538269  0.80188313    -0.34400
N300        N  0.38121747  0.85574326  0.80525533    -0.28700
C301        C  0.37547074  0.86469861  0.78497708    -0.04800
C302        C  0.38135924  0.84934333  0.76816143     0.07400
C303        C  0.39069246  0.83106681  0.77947080     0.01200
H304        H  0.36700157  0.88081885  0.78270809     0.08900
H305        H  0.39584215  0.81506784  0.77209568     0.08000
N306        N  0.36966929  0.87658384  0.87170294    -0.35900
N307        N  0.36752571  0.86057379  0.88726979    -0.28100
C308        C  0.36433093  0.87042881  0.90762774    -0.03300
C309        C  0.36439788  0.89384904  0.90498709     0.05300
C310        C  0.36788674  0.89704975  0.88183980     0.03400
H311        H  0.36228791  0.86113711  0.92331111     0.08500
H312        H  0.36978646  0.91299123  0.87299589     0.07300
N313        N  0.14962724  0.80244193  0.62756533    -0.27000
N314        N  0.16959161  0.79840312  0.61803638    -0.34900
C315        C  0.17219847  0.77590298  0.61536376     0.01300
C316        C  0.15310450  0.76527812  0.62396267     0.07300
C317        C  0.13915280  0.78257351  0.63162340    -0.05800
H318        H  0.18770810  0.76781953  0.60964593     0.08000
H319        H  0.12315495  0.78080987  0.64051816     0.09200
Cu320      Cu  0.19465649  0.82285149  0.61499605     0.44200
Cu321      Cu  0.13907341  0.83467804  0.63689975     0.42000
Cu322      Cu  0.18411118  0.87606526  0.64405365     0.43900
N323        N  0.21994315  0.84544589  0.62431344    -0.34400
N324        N  0.21626060  0.86402430  0.63636099    -0.28700
C325        C  0.23634430  0.87239160  0.64343946    -0.04800
C326        C  0.25340796  0.85853557  0.63516553     0.07400
C327        C  0.24246536  0.84172844  0.62302795     0.01200
H328        H  0.23829683  0.88696639  0.65440967     0.08900
H329        H  0.25016879  0.82688587  0.61542463     0.08000
N330        N  0.14995226  0.88350387  0.64803284    -0.35900
N331        N  0.13357082  0.86844413  0.64505573    -0.28100
C332        C  0.11336448  0.87883301  0.64734677    -0.03300
C333        C  0.11715890  0.90148690  0.65217198     0.05300
C334        C  0.14058961  0.90386399  0.65243955     0.03400
H335        H  0.09706260  0.87054779  0.64526291     0.08500
H336        H  0.15016741  0.91936686  0.65457285     0.07300
N337        N  0.15356603  0.64851585  0.79522168    -0.27000
N338        N  0.17286949  0.63743744  0.79190098    -0.34900
C339        C  0.17669144  0.63550132  0.76948424     0.01300
C340        C  0.15914622  0.64613789  0.75809253     0.07300
C341        C  0.14479330  0.65432391  0.77487619    -0.05800
H342        H  0.19164541  0.62777583  0.76207409     0.08000
H343        H  0.12914249  0.66367343  0.77249151     0.09200
Cu344      Cu  0.19517183  0.62848544  0.81755454     0.44200
Cu345      Cu  0.14021410  0.65452327  0.82746887     0.42000
Cu346      Cu  0.18221093  0.65068946  0.87267849     0.43900
N347        N  0.21892971  0.63061072  0.84336912    -0.34400
N348        N  0.21466264  0.64040052  0.86311642    -0.28700
C349        C  0.23433966  0.64274192  0.87459857    -0.04800
C350        C  0.25169769  0.63371584  0.86149697     0.07400
C351        C  0.24131666  0.62610207  0.84186999     0.01200
H352        H  0.23597702  0.65099870  0.89092072     0.08900
H353        H  0.24962948  0.61940952  0.82690890     0.08000
N354        N  0.14751074  0.65474059  0.87824378    -0.35900
N355        N  0.13204305  0.65542659  0.86192140    -0.28100
C356        C  0.11117728  0.65606102  0.87143908    -0.03300
C357        C  0.11368617  0.65588563  0.89485898     0.05300
C358        C  0.13694586  0.65523180  0.89849437     0.03400
H359        H  0.09541205  0.65681157  0.86199591     0.08500
H360        H  0.14556392  0.65456323  0.91473009     0.07300
N361        N  0.31354227  0.63111227  0.86164982    -0.27000
N362        N  0.31004754  0.64952364  0.87404456    -0.34900
C363        C  0.28752966  0.65240159  0.87702220     0.01300
C364        C  0.27630909  0.63522741  0.86567113     0.07300
C365        C  0.29327485  0.62205664  0.85607254    -0.05800
H366        H  0.27987688  0.66692132  0.88526246     0.08000
H367        H  0.29105115  0.60741971  0.84523125     0.09200
Cu368      Cu  0.33511722  0.67296252  0.88200784     0.44200
Cu369      Cu  0.34558357  0.61954631  0.85194413     0.42000
Cu370      Cu  0.39050692  0.66047192  0.85996436     0.43900
N371        N  0.36010958  0.69749129  0.87820693    -0.34400
N372        N  0.38004256  0.69316220  0.86872110    -0.28700
C373        C  0.39073466  0.71294083  0.86462661    -0.04800
C374        C  0.37699627  0.73050053  0.87220827     0.07400
C375        C  0.35775643  0.72007197  0.88080310     0.01200
H376        H  0.40691164  0.71447441  0.85601425     0.08900
H377        H  0.34245485  0.72833881  0.88677561     0.08000
N378        N  0.39625967  0.62649084  0.85182656    -0.35900
N379        N  0.37988250  0.61156496  0.84816473    -0.28100
C380        C  0.38929719  0.59103083  0.84435859    -0.03300
C381        C  0.41276549  0.59309698  0.84586372     0.05300
C382        C  0.41645814  0.61582096  0.85067319     0.03400
H383        H  0.37970486  0.57554368  0.84218889     0.08500
H384        H  0.43269273  0.62389205  0.85383788     0.07300
N385        N  0.16192318  0.64421425  0.69638119    -0.27000
N386        N  0.15024508  0.66318425  0.69933900    -0.34900
C387        C  0.14679819  0.66644930  0.72171669     0.01300
C388        C  0.15704717  0.64884035  0.73335875     0.07300
C389        C  0.16653134  0.63511024  0.71681510    -0.05800
H390        H  0.13847538  0.68111841  0.72898538     0.08000
H391        H  0.17620373  0.61973202  0.71942776     0.09200
Cu392      Cu  0.14269837  0.68560540  0.67326635     0.44200
Cu393      Cu  0.17120170  0.63144061  0.66477026     0.42000
Cu394      Cu  0.16681664  0.67144840  0.61880986     0.43900
N395        N  0.14607482  0.70867854  0.64693089    -0.34400
N396        N  0.15656157  0.70390376  0.62764101    -0.28700
C397        C  0.15983788  0.72323122  0.61596180    -0.04800
C398        C  0.15058447  0.74090814  0.62834838     0.07400
C399        C  0.14193780  0.73109250  0.64782751     0.01200
H400        H  0.16892374  0.72441174  0.60003781     0.08900
H401        H  0.13489447  0.73981607  0.66239281     0.08000
N402        N  0.17313542  0.63720761  0.61406360    -0.35900
N403        N  0.17532389  0.62248140  0.63085341    -0.28100
C404        C  0.17775183  0.60153444  0.62201939    -0.03300
C405        C  0.17690412  0.60326567  0.59858867     0.05300
C406        C  0.17377604  0.62605147  0.59416624     0.03400
H407        H  0.17849223  0.58609298  0.63189101     0.08500
H408        H  0.17114131  0.63382054  0.57773164     0.07300
N409        N  0.31443193  0.85153051  0.64022124    -0.27000
N410        N  0.30981110  0.86045876  0.66031745    -0.34900
C411        C  0.28748104  0.86556285  0.66117057     0.01300
C412        C  0.27770021  0.85920173  0.64076168     0.07300
C413        C  0.29521274  0.85031492  0.62794216    -0.05800
H414        H  0.27877221  0.87196609  0.67604277     0.08000
H415        H  0.29399609  0.84292587  0.61117663     0.09200
Cu416      Cu  0.33328059  0.86175108  0.68676087     0.44200
Cu417      Cu  0.34618713  0.84035825  0.63029392     0.42000
Cu418      Cu  0.38678379  0.83262068  0.67470117     0.43900
N419        N  0.35814618  0.85516713  0.71107712    -0.34400
N420        N  0.37684398  0.84336189  0.70683948    -0.28700
C421        C  0.38815000  0.83998781  0.72641511    -0.04800
C422        C  0.37623574  0.85047135  0.74373145     0.07400
C423        C  0.35731734  0.85997075  0.73344624     0.01200
H424        H  0.40380741  0.83047261  0.72794153     0.08900
H425        H  0.34342734  0.86870550  0.74174886     0.08000
N426        N  0.39453089  0.82798077  0.64057687    -0.35900
N427        N  0.37958782  0.83145835  0.62417955    -0.28100
C428        C  0.38996070  0.82914684  0.60395963    -0.03300
C429        C  0.41259634  0.82392120  0.60779325     0.05300
C430        C  0.41484475  0.82311537  0.63121199     0.03400
H431        H  0.38156170  0.83111868  0.58772981     0.08500
H432        H  0.43029112  0.82002788  0.64072262     0.07300
N433        N  0.88857307  0.80116516  0.63960347    -0.27000
N434        N  0.86876760  0.79633925  0.63016395    -0.34900
C435        C  0.86846327  0.77421197  0.62458943     0.01300
C436        C  0.88896888  0.76469915  0.63117764     0.07300
C437        C  0.90127705  0.78224060  0.64069694    -0.05800
H438        H  0.85366335  0.76529357  0.61835255     0.08000
H439        H  0.91769443  0.78109096  0.64892699     0.09200
Cu440      Cu  0.84158726  0.81884526  0.63065485     0.44200
Cu441      Cu  0.89634649  0.83285359  0.65209482     0.42000
Cu442      Cu  0.84999720  0.87251755  0.66079868     0.43900
N443        N  0.81535395  0.84028438  0.64062318    -0.34400
N444        N  0.81813829  0.85895067  0.65281196    -0.28700
C445        C  0.79748412  0.86706576  0.65865064    -0.04800
C446        C  0.78102455  0.85298225  0.64943765     0.07400
C447        C  0.79296374  0.83627190  0.63807828     0.01200
H448        H  0.79466974  0.88199003  0.66894453     0.08900
H449        H  0.78593150  0.82163736  0.62953093     0.08000
N450        N  0.88434943  0.88151013  0.66234742    -0.35900
N451        N  0.90098992  0.86679413  0.65889859    -0.28100
C452        C  0.92099780  0.87774603  0.65864079    -0.03300
C453        C  0.91691536  0.90054638  0.66203586     0.05300
C454        C  0.89350186  0.90234406  0.66461212     0.03400
H455        H  0.93726212  0.86962063  0.65593642     0.08500
H456        H  0.88379722  0.91776580  0.66695081     0.07300
N457        N  0.64964646  0.79935556  0.87276075    -0.27000
N458        N  0.63666805  0.79614052  0.85469960    -0.34900
C459        C  0.63219018  0.77385011  0.85270808     0.01300
C460        C  0.64316837  0.76260675  0.87019005     0.07300
C461        C  0.65402704  0.77927347  0.88256949    -0.05800
H462        H  0.62347775  0.76622631  0.83844527     0.08000
H463        H  0.66529412  0.77688994  0.89690089     0.09200
Cu464      Cu  0.63076862  0.82119124  0.83064121     0.44200
Cu465      Cu  0.66280682  0.83037605  0.88212740     0.42000
Cu466      Cu  0.65823391  0.87522614  0.84094374     0.43900
N467        N  0.63737486  0.84478761  0.80533940    -0.34400
N468        N  0.64879179  0.86381073  0.80875121    -0.28700
C469        C  0.65453515  0.87267821  0.78844226    -0.04800
C470        C  0.64604057  0.85870054  0.77151626     0.07400
C471        C  0.63515255  0.84130533  0.78286383     0.01200
H472        H  0.66500938  0.88756066  0.78618541     0.08900
H473        H  0.62798277  0.82616263  0.77537228     0.08000
N474        N  0.66745055  0.88045859  0.87473974    -0.35900
N475        N  0.67026399  0.86372856  0.88941572    -0.28100
C476        C  0.67531021  0.87237112  0.90993599    -0.03300
C477        C  0.67553775  0.89568714  0.90815642     0.05300
C478        C  0.67025687  0.90028802  0.88570161     0.03400
H479        H  0.67686780  0.86250314  0.92534108     0.08500
H480        H  0.66764457  0.91680929  0.87816477     0.07300
N481        N  0.87753471  0.65182429  0.79583633    -0.27000
N482        N  0.85856592  0.64064715  0.79121298    -0.34900
C483        C  0.85757871  0.63664877  0.76871658     0.01300
C484        C  0.87665758  0.64602536  0.75869439     0.07300
C485        C  0.88890937  0.65554784  0.77634686    -0.05800
H486        H  0.84340925  0.62866429  0.76016114     0.08000
H487        H  0.90473207  0.66479363  0.77509568     0.09200
Cu488      Cu  0.83301883  0.63458297  0.81487361     0.44200
Cu489      Cu  0.88712055  0.66189485  0.82833928     0.42000
Cu490      Cu  0.84307040  0.65854135  0.87049379     0.43900
N491        N  0.80772751  0.63840986  0.83927306    -0.34400
N492        N  0.81123298  0.64850664  0.85903007    -0.28700
C493        C  0.79111707  0.65159056  0.86949616    -0.04800
C494        C  0.77417447  0.64274772  0.85581414     0.07400
C495        C  0.78528840  0.63442515  0.83683576     0.01200
H496        H  0.78894510  0.66015874  0.88559243     0.08900
H497        H  0.77751461  0.62743355  0.82172652     0.08000
N498        N  0.87686032  0.66513831  0.87831603    -0.35900
N499        N  0.89304777  0.66686956  0.86282524    -0.28100
C500        C  0.91317642  0.66983675  0.87336492    -0.03300
C501        C  0.90950517  0.66962551  0.89661022     0.05300
C502        C  0.88625271  0.66670864  0.89909841     0.03400
H503        H  0.92943359  0.67081072  0.86479434     0.08500
H504        H  0.87686441  0.66533430  0.91482508     0.07300
N505        N  0.88014201  0.64263904  0.69699818    -0.27000
N506        N  0.89212754  0.66121906  0.70085318    -0.34900
C507        C  0.89350950  0.66469525  0.72340011     0.01300
C508        C  0.88158523  0.64765148  0.73424217     0.07300
C509        C  0.87329927  0.63397274  0.71701823    -0.05800
H510        H  0.90135970  0.67932305  0.73122716     0.08000
H511        H  0.86269255  0.61912407  0.71886130     0.09200
Cu512      Cu  0.90212735  0.68342208  0.67545899     0.44200
Cu513      Cu  0.87303207  0.63052654  0.66457096     0.42000
Cu514      Cu  0.88097899  0.67106144  0.61925888     0.43900
N515        N  0.89978641  0.70734335  0.64980636    -0.34400
N516        N  0.89019207  0.70327602  0.62990071    -0.28700
C517        C  0.88615569  0.72312896  0.61937577    -0.04800
C518        C  0.89395598  0.74041816  0.63319579     0.07400
C519        C  0.90261102  0.72981779  0.65225255     0.01200
H520        H  0.87705937  0.72489443  0.60349719     0.08900
H521        H  0.90819091  0.73793637  0.66775776     0.08000
N522        N  0.87522416  0.63681163  0.61376954    -0.35900
N523        N  0.87164495  0.62205276  0.63029320    -0.28100
C524        C  0.86937387  0.60122671  0.62120216    -0.03300
C525        C  0.87205133  0.60295206  0.59792010     0.05300
C526        C  0.87567661  0.62574193  0.59378596     0.03400
H527        H  0.86697036  0.58583316  0.63089916     0.08500
H528        H  0.87870928  0.63367139  0.57750354     0.07300
N529        N  0.71217134  0.64040654  0.85587707    -0.27000
N530        N  0.71573954  0.65877138  0.86828015    -0.34900
C531        C  0.73827167  0.66179242  0.87087837     0.01300
C532        C  0.74945373  0.64471375  0.85929159     0.07300
C533        C  0.73242588  0.63146617  0.84991636    -0.05800
H534        H  0.74593508  0.67612924  0.87939565     0.08000
H535        H  0.73458419  0.61665083  0.83930751     0.09200
Cu536      Cu  0.69027643  0.68129710  0.87753955     0.44200
Cu537      Cu  0.67976453  0.62871407  0.84765158     0.42000
Cu538      Cu  0.63416077  0.66919261  0.85624576     0.43900
N539        N  0.66448869  0.70520914  0.87564449    -0.34400
N540        N  0.64446011  0.70119152  0.86624388    -0.28700
C541        C  0.63323385  0.72092614  0.86369622    -0.04800
C542        C  0.64678072  0.73808348  0.87221570     0.07400
C543        C  0.66639718  0.72753898  0.87974471     0.01200
H544        H  0.61684461  0.72271438  0.85554177     0.08900
H545        H  0.68164673  0.73567802  0.88598840     0.08000
N546        N  0.62880428  0.63506286  0.85016939    -0.35900
N547        N  0.64536134  0.62033574  0.84633891    -0.28100
C548        C  0.63623041  0.59955288  0.84392372    -0.03300
C549        C  0.61290293  0.60127303  0.84680288     0.05300
C550        C  0.60878552  0.62403566  0.85063116     0.03400
H551        H  0.64593243  0.58417981  0.84120836     0.08500
H552        H  0.59248308  0.63201826  0.85368048     0.07300
N553        N  0.71917413  0.84793350  0.64868942    -0.27000
N554        N  0.72213607  0.85929102  0.66785156    -0.34900
C555        C  0.74447527  0.86360689  0.67060008     0.01300
C556        C  0.75615843  0.85423113  0.65248712     0.07300
C557        C  0.73961299  0.84437365  0.63896387    -0.05800
H558        H  0.75176807  0.87185676  0.68530261     0.08000
H559        H  0.74225323  0.83503767  0.62337048     0.09200
Cu560      Cu  0.69624957  0.86527155  0.69117855     0.44200
Cu561      Cu  0.68747102  0.83742902  0.63681827     0.42000
Cu562      Cu  0.64227903  0.83821365  0.67832172     0.43900
N563        N  0.66991568  0.86213543  0.71454911    -0.34400
N564        N  0.65080186  0.85108322  0.71025900    -0.28700
C565        C  0.63890308  0.84905235  0.72970563    -0.04800
C566        C  0.65096694  0.85954868  0.74697059     0.07400
C567        C  0.67049046  0.86773754  0.73672981     0.01200
H568        H  0.62302621  0.83995732  0.73130700     0.08900
H569        H  0.68481253  0.87568334  0.74508662     0.08000
N570        N  0.63724136  0.82968360  0.64426293    -0.35900
N571        N  0.65368887  0.83011124  0.62891332    -0.28100
C572        C  0.64470945  0.82595580  0.60821459    -0.03300
C573        C  0.62144732  0.82256310  0.61075962     0.05300
C574        C  0.61752797  0.82489477  0.63376851     0.03400
H575        H  0.65419963  0.82557401  0.59278078     0.08500
H576        H  0.60076086  0.82404777  0.64244449     0.07300
N577        N  0.21336354  0.61991636  0.13108944    -0.27000
N578        N  0.21672870  0.60820559  0.14996640    -0.34900
C579        C  0.23921484  0.60540602  0.15312768     0.01300
C580        C  0.25053542  0.61618367  0.13565226     0.07300
C581        C  0.23368118  0.62523386  0.12199086    -0.05800
H582        H  0.24676405  0.59782263  0.16805950     0.08000
H583        H  0.23600248  0.63568249  0.10708283     0.09200
Cu584      Cu  0.19161314  0.60129520  0.17368228     0.44200
Cu585      Cu  0.18149535  0.62973065  0.11936289     0.42000
Cu586      Cu  0.13671847  0.62413011  0.16098304     0.43900
N587        N  0.16674882  0.60612518  0.19817797    -0.34400
N588        N  0.14699637  0.61588118  0.19367678    -0.28700
C589        C  0.13655435  0.62104261  0.21336318    -0.04800
C590        C  0.15026331  0.61383457  0.23105129     0.07400
C591        C  0.16921887  0.60437442  0.22083656     0.01200
H592        H  0.12071902  0.63029173  0.21470084     0.08900
H593        H  0.18453366  0.59858711  0.22923250     0.08000
N594        N  0.13109558  0.63300076  0.12733545    -0.35900
N595        N  0.14741495  0.63573394  0.11212991    -0.28100
C596        C  0.13795969  0.64146831  0.09207369    -0.03300
C597        C  0.11453058  0.64227618  0.09481849     0.05300
C598        C  0.11087179  0.63669948  0.11736809     0.03400
H599        H  0.14739961  0.64388687  0.07648969     0.08500
H600        H  0.09464075  0.63524859  0.12589758     0.07300
N601        N  0.15599451  0.78479829  0.35268304    -0.27000
N602        N  0.17380356  0.77900951  0.36514708    -0.34900
C603        C  0.17471130  0.75629056  0.36677739     0.01300
C604        C  0.15683032  0.74732435  0.35446497     0.07300
C605        C  0.14533709  0.76582980  0.34563927    -0.05800
H606        H  0.18796391  0.74697717  0.37547435     0.08000
H607        H  0.13025909  0.76554543  0.33511841     0.09200
Cu608      Cu  0.19793087  0.80194984  0.37660047     0.44200
Cu609      Cu  0.14663886  0.81838234  0.34723229     0.42000
Cu610      Cu  0.18836798  0.86087630  0.36309562     0.43900
N611        N  0.22339305  0.82623693  0.37725640    -0.34400
N612        N  0.22030423  0.84748224  0.37075946    -0.28700
C613        C  0.24075873  0.85763607  0.36897275    -0.04800
C614        C  0.25740613  0.84209674  0.37497071     0.07400
C615        C  0.24577835  0.82243583  0.38022142     0.01200
H616        H  0.24336408  0.87476478  0.36299494     0.08900
H617        H  0.25314598  0.80606845  0.38410446     0.08000
N618        N  0.15426437  0.86825527  0.35666021    -0.35900
N619        N  0.13931193  0.85278128  0.35023683    -0.28100
C620        C  0.11884717  0.86270856  0.34772464    -0.03300
C621        C  0.12082009  0.88552177  0.35306436     0.05300
C622        C  0.14360838  0.88842531  0.35855531     0.03400
H623        H  0.10351025  0.85384218  0.34282529     0.08500
H624        H  0.15197647  0.90405390  0.36322518     0.07300
N625        N  0.36540764  0.78547956  0.14733280    -0.27000
N626        N  0.37701718  0.78155516  0.16618679    -0.34900
C627        C  0.38110178  0.75916958  0.16798027     0.01300
C628        C  0.37134220  0.74835911  0.14956907     0.07300
C629        C  0.36147732  0.76553834  0.13682457    -0.05800
H630        H  0.38933594  0.75122002  0.18235498     0.08000
H631        H  0.35179110  0.76363628  0.12132686     0.09200
Cu632      Cu  0.38347381  0.80603382  0.19069322     0.44200
Cu633      Cu  0.35528970  0.81796900  0.13728507     0.42000
Cu634      Cu  0.36116086  0.86180408  0.18059273     0.43900
N635        N  0.38103931  0.83070744  0.21572813    -0.34400
N636        N  0.37149802  0.85073693  0.21238015    -0.28700
C637        C  0.36944210  0.86146902  0.23247640    -0.04800
C638        C  0.37847201  0.84761341  0.24916667     0.07400
C639        C  0.38571859  0.82830600  0.23795710     0.01200
H640        H  0.36153112  0.87785706  0.23480992     0.08900
H641        H  0.39250390  0.81304897  0.24557721     0.08000
N642        N  0.35414154  0.86847025  0.14673180    -0.35900
N643        N  0.35137524  0.85263721  0.13102387    -0.28100
C644        C  0.34836613  0.86279534  0.11074357    -0.03300
C645        C  0.34947569  0.88601503  0.11390213     0.05300
C646        C  0.35325706  0.88901856  0.13685298     0.03400
H647        H  0.34677849  0.85393730  0.09472625     0.08500
H648        H  0.35597489  0.90491318  0.14559869     0.07300
N649        N  0.31186127  0.61921213  0.14220530    -0.27000
N650        N  0.30780614  0.63885353  0.13216945    -0.34900
C651        C  0.28553563  0.64016009  0.12699600     0.01300
C652        C  0.27509346  0.62053125  0.13445253     0.07300
C653        C  0.29223730  0.60765755  0.14406254    -0.05800
H654        H  0.27729485  0.65498645  0.11997029     0.08000
H655        H  0.29047251  0.59144644  0.15244832     0.09200
Cu656      Cu  0.33167502  0.66465622  0.13027102     0.44200
Cu657      Cu  0.34369514  0.60947185  0.15371963     0.42000
Cu658      Cu  0.38550219  0.65404664  0.15896192     0.43900
N659        N  0.35485895  0.68993250  0.13824549    -0.34400
N660        N  0.37374428  0.68643445  0.15000102    -0.28700
C661        C  0.38298835  0.70670711  0.15521172    -0.04800
C662        C  0.36940124  0.72365363  0.14605494     0.07400
C663        C  0.35181017  0.71236980  0.13534986     0.01200
H664        H  0.39814573  0.70896553  0.16536764     0.08900
H665        H  0.33706608  0.71993022  0.12735675     0.08000
N666        N  0.39314515  0.61949076  0.16270904    -0.35900
N667        N  0.37775795  0.60330351  0.16039407    -0.28100
C668        C  0.38806579  0.58295072  0.16167562    -0.03300
C669        C  0.41114766  0.58633814  0.16500002     0.05300
C670        C  0.41368794  0.60974490  0.16580315     0.03400
H671        H  0.37933175  0.56688405  0.16016395     0.08500
H672        H  0.42946806  0.61899691  0.16764008     0.07300
N673        N  0.38291647  0.84499876  0.31062386    -0.27000
N674        N  0.36404462  0.85703735  0.30838045    -0.34900
C675        C  0.36049599  0.86126108  0.28618529     0.01300
C676        C  0.37774236  0.85102782  0.27389500     0.07300
C677        C  0.39163352  0.84086937  0.28990233    -0.05800
H678        H  0.34535296  0.86920069  0.27939463     0.08000
H679        H  0.40630445  0.83028371  0.28667472     0.09200
Cu680      Cu  0.34078871  0.86136927  0.33454984     0.44200
Cu681      Cu  0.39460149  0.83252760  0.34149318     0.42000
Cu682      Cu  0.35117596  0.82483456  0.38345165     0.43900
N683        N  0.31596600  0.85239699  0.35794287    -0.34400
N684        N  0.31925377  0.83753897  0.37446613    -0.28700
C685        C  0.29896734  0.83220379  0.38367084    -0.04800
C686        C  0.28223141  0.84455610  0.37264403     0.07400
C687        C  0.29361900  0.85723110  0.35652090     0.01200
H688        H  0.29652538  0.81983720  0.39699429     0.08900
H689        H  0.28604895  0.86781242  0.34354618     0.08000
N690        N  0.38564526  0.81938514  0.39005356    -0.35900
N691        N  0.40165540  0.82274437  0.37466245    -0.28100
C692        C  0.42220208  0.82044619  0.38453471    -0.03300
C693        C  0.41907570  0.81547532  0.40736709     0.05300
C694        C  0.39561678  0.81470032  0.41012607     0.03400
H695        H  0.43817325  0.82260536  0.37572421     0.08500
H696        H  0.38647458  0.81213551  0.42586357     0.07300
N697        N  0.15154553  0.61832448  0.29266764    -0.27000
N698        N  0.14303221  0.63838821  0.28720367    -0.34900
C699        C  0.14015499  0.63932132  0.26454379     0.01300
C700        C  0.14754118  0.61905987  0.25530708     0.07300
C701        C  0.15476526  0.60618600  0.27355655    -0.05800
H702        H  0.13456698  0.65419302  0.25535567     0.08000
H703        H  0.16225033  0.58944727  0.27296025     0.09200
Cu704      Cu  0.13946629  0.66520138  0.30988521     0.44200
Cu705      Cu  0.15916764  0.60834013  0.32569796     0.42000
Cu706      Cu  0.15737581  0.65329370  0.36703888     0.43900
N707        N  0.14463660  0.69031182  0.33413269    -0.34400
N708        N  0.15229944  0.68586042  0.35477341    -0.28700
C709        C  0.15715479  0.70547953  0.36535786    -0.04800
C710        C  0.15199919  0.72313734  0.35080579     0.07400
C711        C  0.14400425  0.71295910  0.33118410     0.01200
H712        H  0.16446278  0.70676016  0.38216504     0.08900
H713        H  0.13951184  0.72130822  0.31545384     0.08000
N714        N  0.16252533  0.61952027  0.37539605    -0.35900
N715        N  0.16371433  0.60295268  0.36031469    -0.28100
C716        C  0.16658303  0.58312181  0.37133068    -0.03300
C717        C  0.16713482  0.58746201  0.39447784     0.05300
C718        C  0.16441043  0.61071601  0.39634903     0.03400
H719        H  0.16698383  0.56670711  0.36314730     0.08500
H720        H  0.16334190  0.62049550  0.41186843     0.07300
N721        N  0.66427198  0.78967538  0.14271205    -0.27000
N722        N  0.65115684  0.78448259  0.16020383    -0.34900
C723        C  0.64578211  0.76234158  0.15918893     0.01300
C724        C  0.65626718  0.75305826  0.14033921     0.07300
C725        C  0.66793394  0.77082418  0.13030884    -0.05800
H726        H  0.63623407  0.75336831  0.17205435     0.08000
H727        H  0.67858018  0.77003316  0.11535130     0.09200
Cu728      Cu  0.64476580  0.80649083  0.18692870     0.44200
Cu729      Cu  0.67604154  0.82237356  0.13660187     0.42000
Cu730      Cu  0.66827344  0.86276374  0.18232367     0.43900
N731        N  0.64938062  0.82784237  0.21453911    -0.34400
N732        N  0.65935899  0.84787703  0.21308442    -0.28700
C733        C  0.66305192  0.85586026  0.23419840    -0.04800
C734        C  0.65471398  0.84020650  0.24960950     0.07400
C735        C  0.64609885  0.82271213  0.23656471     0.01200
H736        H  0.67157376  0.87163291  0.23803489     0.08900
H737        H  0.63925588  0.80680847  0.24263409     0.08000
N738        N  0.67449580  0.87216397  0.14884278    -0.35900
N739        N  0.67829992  0.85732115  0.13242568    -0.28100
C740        C  0.68086388  0.86851589  0.11270721    -0.03300
C741        C  0.67819090  0.89150303  0.11673658     0.05300
C742        C  0.67425901  0.89319641  0.13990218     0.03400
H743        H  0.68340258  0.86041909  0.09639652     0.08500
H744        H  0.67130333  0.90851159  0.14957363     0.07300
N745        N  0.88060330  0.79142691  0.35469956    -0.27000
N746        N  0.86345509  0.78558426  0.36798979    -0.34900
C747        C  0.86367544  0.76297359  0.37093818     0.01300
C748        C  0.88167579  0.75410872  0.35869632     0.07300
C749        C  0.89203669  0.77259388  0.34853799    -0.05800
H750        H  0.85097090  0.75359599  0.38030837     0.08000
H751        H  0.90663829  0.77236081  0.33736553     0.09200
Cu752      Cu  0.83852546  0.80813455  0.37846187     0.44200
Cu753      Cu  0.88737986  0.82494913  0.34615248     0.42000
Cu754      Cu  0.84386982  0.86653047  0.36000559     0.43900
N755        N  0.81186308  0.83114433  0.37860298    -0.34400
N756        N  0.81340706  0.85199147  0.37047965    -0.28700
C757        C  0.79235792  0.86089636  0.36894049    -0.04800
C758        C  0.77693730  0.84499066  0.37677265     0.07400
C759        C  0.78988632  0.82639269  0.38284713     0.01200
H760        H  0.78849162  0.87730810  0.36172572     0.08900
H761        H  0.78364719  0.80994962  0.38804863     0.08000
N762        N  0.87700780  0.87506920  0.35110584    -0.35900
N763        N  0.89251318  0.85981275  0.34544367    -0.28100
C764        C  0.91233219  0.87039712  0.34144459    -0.03300
C765        C  0.90938239  0.89343944  0.34496246     0.05300
C766        C  0.88667426  0.89579212  0.35100787     0.03400
H767        H  0.92803405  0.86179942  0.33717938     0.08500
H768        H  0.87777035  0.91132383  0.35509744     0.07300
N769        N  0.81615739  0.63868277  0.13645221    -0.27000
N770        N  0.81381384  0.62658290  0.15523322    -0.34900
C771        C  0.79163128  0.62130875  0.15795270     0.01300
C772        C  0.77945871  0.63081368  0.14019369     0.07300
C773        C  0.79556195  0.64168655  0.12695838    -0.05800
H774        H  0.78470629  0.61264277  0.17258572     0.08000
H775        H  0.79244518  0.65174388  0.11192375     0.09200
Cu776      Cu  0.84019034  0.62174854  0.17840517     0.44200
Cu777      Cu  0.84683689  0.65218035  0.12493672     0.42000
Cu778      Cu  0.89066412  0.65626336  0.16579392     0.43900
N779        N  0.86660768  0.62765993  0.20127730    -0.34400
N780        N  0.88394333  0.64129084  0.19688599    -0.28700
C781        C  0.89601660  0.64447511  0.21597571    -0.04800
C782        C  0.88605722  0.63210721  0.23319770     0.07400
C783        C  0.86748162  0.62154535  0.22333379     0.01200
H784        H  0.91051669  0.65565696  0.21738464     0.08900
H785        H  0.85460003  0.61166530  0.23191171     0.08000
N786        N  0.89566897  0.66553255  0.13226940    -0.35900
N787        N  0.87947515  0.66337354  0.11686984    -0.28100
C788        C  0.88858992  0.66652903  0.09615186    -0.03300
C789        C  0.91162955  0.67108091  0.09861909     0.05300
C790        C  0.91548021  0.67033672  0.12181825     0.03400
H791        H  0.87953811  0.66394364  0.08036796     0.08500
H792        H  0.93182653  0.67080655  0.13025314     0.07300
N793        N  0.71716383  0.62781415  0.14123434    -0.27000
N794        N  0.72063502  0.64656382  0.12942016    -0.34900
C795        C  0.74308188  0.64978757  0.12672202     0.01300
C796        C  0.75452844  0.63245920  0.13756886     0.07300
C797        C  0.73760125  0.61877587  0.14668483    -0.05800
H798        H  0.75052871  0.66445961  0.11862021     0.08000
H799        H  0.73996736  0.60362561  0.15675174     0.09200
Cu800      Cu  0.69561655  0.66981745  0.12133616     0.44200
Cu801      Cu  0.68429865  0.61640260  0.14918893     0.42000
Cu802      Cu  0.63960333  0.65918682  0.14164070     0.43900
N803        N  0.67195665  0.69531592  0.12591406    -0.34400
N804        N  0.65173858  0.69171576  0.13503899    -0.28700
C805        C  0.64241089  0.71185582  0.14057235    -0.04800
C806        C  0.65743960  0.72885713  0.13433626     0.07400
C807        C  0.67590970  0.71774977  0.12498718     0.01200
H808        H  0.62645501  0.71391028  0.14947816     0.08900
H809        H  0.69190569  0.72526552  0.11992200     0.08000
N810        N  0.63319893  0.62483616  0.14707250    -0.35900
N811        N  0.64928448  0.60952046  0.15077807    -0.28100
C812        C  0.63931538  0.58928000  0.15449709    -0.03300
C813        C  0.61592899  0.59185742  0.15262849     0.05300
C814        C  0.61268953  0.61463476  0.14793028     0.03400
H815        H  0.64842696  0.57372932  0.15806061     0.08500
H816        H  0.59658080  0.62329057  0.14587265     0.07300
N817        N  0.89307953  0.62802687  0.29461277    -0.27000
N818        N  0.90039810  0.64885084  0.29064115    -0.34900
C819        C  0.90002046  0.65279304  0.26820269     0.01300
C820        C  0.89167300  0.63374687  0.25746073     0.07300
C821        C  0.88734845  0.61831759  0.27465922    -0.05800
H822        H  0.90383555  0.66897109  0.26045964     0.08000
H823        H  0.88001206  0.60161167  0.27288368     0.09200
Cu824      Cu  0.90504368  0.67328219  0.31535911     0.44200
Cu825      Cu  0.88993388  0.61492366  0.32732594     0.42000
Cu826      Cu  0.88261859  0.65929616  0.36984604     0.43900
N827        N  0.89702366  0.69756071  0.33937970    -0.34400
N828        N  0.88718805  0.69255960  0.35892636    -0.28700
C829        C  0.88078694  0.71195702  0.36919073    -0.04800
C830        C  0.88713470  0.72995932  0.35547944     0.07400
C831        C  0.89744850  0.72021381  0.33676932     0.01200
H832        H  0.87176209  0.71286195  0.38517074     0.08900
H833        H  0.90346431  0.72883710  0.32172288     0.08000
N834        N  0.88396084  0.62479695  0.37730990    -0.35900
N835        N  0.88756160  0.60865580  0.36209493    -0.28100
C836        C  0.88856642  0.58848330  0.37282960    -0.03300
C837        C  0.88523327  0.59212261  0.39585020     0.05300
C838        C  0.88221953  0.61529548  0.39799722     0.03400
H839        H  0.89075298  0.57232694  0.36440477     0.08500
H840        H  0.87902155  0.62459373  0.41352177     0.07300
N841        N  0.65296370  0.83268813  0.31106551    -0.27000
N842        N  0.67050525  0.84658559  0.30901935    -0.34900
C843        C  0.67323052  0.85202466  0.28700060     0.01300
C844        C  0.65680922  0.84081055  0.27452114     0.07300
C845        C  0.64427784  0.82865057  0.29027429    -0.05800
H846        H  0.68698730  0.86228651  0.28044008     0.08000
H847        H  0.63016604  0.81741959  0.28685162     0.09200
Cu848      Cu  0.69272319  0.85407918  0.33526678     0.44200
Cu849      Cu  0.64217307  0.81938447  0.34207683     0.42000
Cu850      Cu  0.68482561  0.82135422  0.38624039     0.43900
N851        N  0.71789776  0.84969891  0.35945311    -0.34400
N852        N  0.71567139  0.83615993  0.37720560    -0.28700
C853        C  0.73624168  0.83321343  0.38687169    -0.04800
C854        C  0.75201074  0.84578364  0.37477001     0.07400
C855        C  0.73977851  0.85608618  0.35759401     0.01200
H856        H  0.73961000  0.82206629  0.40106201     0.08900
H857        H  0.74659870  0.86582212  0.34360463     0.08000
N858        N  0.65122272  0.81164639  0.39185683    -0.35900
N859        N  0.63550692  0.81077149  0.37579610    -0.28100
C860        C  0.61514891  0.80647979  0.38548600    -0.03300
C861        C  0.61817646  0.80466890  0.40879363     0.05300
C862        C  0.64128383  0.80808706  0.41210927     0.03400
H863        H  0.59912300  0.80661218  0.37644611     0.08500
H864        H  0.65001612  0.80929695  0.42825064     0.07300
N865        N  0.89064335  0.34482507  0.20946259    -0.27000
N866        N  0.87186160  0.35561121  0.21562711    -0.34900
C867        C  0.87208814  0.35850299  0.23829098     0.01300
C868        C  0.89176607  0.34881252  0.24677089     0.07300
C869        C  0.90308827  0.34019177  0.22809614    -0.05800
H870        H  0.85854349  0.36632758  0.24794491     0.08000
H871        H  0.91926012  0.33142528  0.22800622     0.09200
Cu872      Cu  0.84547249  0.36384900  0.19356219     0.44200
Cu873      Cu  0.89936940  0.33807337  0.17597174     0.42000
Cu874      Cu  0.85641716  0.35219884  0.13466898     0.43900
N875        N  0.82010184  0.36368835  0.16893833    -0.34400
N876        N  0.82404547  0.35815475  0.14752707    -0.28700
C877        C  0.80403737  0.35565473  0.13668416    -0.04800
C878        C  0.78670947  0.36028473  0.15188066     0.07400
C879        C  0.79746274  0.36536958  0.17215728     0.01200
H880        H  0.80222739  0.35006061  0.11928061     0.08900
H881        H  0.78941445  0.36825754  0.18842638     0.08000
N882        N  0.89001523  0.34508967  0.12628464    -0.35900
N883        N  0.90559922  0.33897325  0.14128086    -0.28100
C884        C  0.92570723  0.33637305  0.13059649    -0.03300
C885        C  0.92264241  0.34124337  0.10777867     0.05300
C886        C  0.89982212  0.34678651  0.10572936     0.03400
H887        H  0.94160633  0.33271393  0.13908783     0.08500
H888        H  0.89111047  0.35227648  0.09049358     0.07300
N889        N  0.89164742  0.19115048  0.36291631    -0.27000
N890        N  0.87318067  0.19648358  0.37462639    -0.34900
C891        C  0.87355676  0.21881085  0.37936576     0.01300
C892        C  0.89304174  0.22798144  0.36995171     0.07300
C893        C  0.90407651  0.21000858  0.35959967    -0.05800
H894        H  0.85994178  0.22792496  0.38772246     0.08000
H895        H  0.91970664  0.21066531  0.34993544     0.09200
Cu896      Cu  0.84637907  0.17421102  0.38004372     0.44200
Cu897      Cu  0.89902045  0.15857805  0.35159307     0.42000
Cu898      Cu  0.85336462  0.11815936  0.35590524     0.43900
N899        N  0.81955624  0.15192826  0.37477026    -0.34400
N900        N  0.82188604  0.13210780  0.36448944    -0.28700
C901        C  0.80106722  0.12360952  0.36011331    -0.04800
C902        C  0.78493705  0.13862696  0.36838768     0.07400
C903        C  0.79724884  0.15631982  0.37765973     0.01200
H904        H  0.79790744  0.10793247  0.35112943     0.08900
H905        H  0.79049181  0.17194686  0.38454256     0.08000
N906        N  0.88698464  0.10900952  0.34915619    -0.35900
N907        N  0.90352926  0.12398215  0.34663404    -0.28100
C908        C  0.92326079  0.11291444  0.34305228    -0.03300
C909        C  0.91904936  0.08984240  0.34373226     0.05300
C910        C  0.89584391  0.08799021  0.34759236     0.03400
H911        H  0.93967279  0.12104170  0.34129309     0.08500
H912        H  0.88615205  0.07251727  0.34946197     0.07300
N913        N  0.66628661  0.19373113  0.14813305    -0.27000
N914        N  0.65248001  0.19791880  0.16540309    -0.34900
C915        C  0.64936193  0.22042778  0.16724054     0.01300
C916        C  0.66202767  0.23099074  0.15057456     0.07300
C917        C  0.67262005  0.21359974  0.13878357    -0.05800
H918        H  0.63965614  0.22854129  0.18056394     0.08000
H919        H  0.68425558  0.21526244  0.12464544     0.09200
Cu920      Cu  0.64169994  0.17380544  0.18862329     0.44200
Cu921      Cu  0.67575568  0.16114471  0.13811587     0.42000
Cu922      Cu  0.66240208  0.11785928  0.17942755     0.43900
N923        N  0.64291407  0.14961910  0.21410297    -0.34400
N924        N  0.65190329  0.12933946  0.21083487    -0.28700
C925        C  0.65564455  0.11947599  0.23105376    -0.04800
C926        C  0.64838008  0.13414164  0.24784998     0.07400
C927        C  0.64027143  0.15305639  0.23655378     0.01200
H928        H  0.66451527  0.10357322  0.23338867     0.08900
H929        H  0.63535561  0.16904072  0.24411684     0.08000
N930        N  0.67287448  0.11089666  0.14669529    -0.35900
N931        N  0.67822210  0.12651318  0.13152333    -0.28100
C932        C  0.68291437  0.11619750  0.11163318    -0.03300
C933        C  0.68034132  0.09297981  0.11449622     0.05300
C934        C  0.67392818  0.09035404  0.13695178     0.03400
H935        H  0.68645170  0.12507340  0.09597713     0.08500
H936        H  0.66960619  0.07468088  0.14546151     0.07300
N937        N  0.66134162  0.29275235  0.15172119    -0.27000
N938        N  0.68123583  0.28897272  0.14186924    -0.34900
C939        C  0.68405845  0.26649525  0.13900826     0.01300
C940        C  0.66518421  0.25558122  0.14772953     0.07300
C941        C  0.65114243  0.27270752  0.15567509    -0.05800
H942        H  0.69932060  0.25865103  0.13239381     0.08000
H943        H  0.63494538  0.27073055  0.16416681     0.09200
Cu944      Cu  0.70553358  0.31390101  0.13649634     0.44200
Cu945      Cu  0.64923633  0.32499273  0.16001424     0.42000
Cu946      Cu  0.69171151  0.36918998  0.15849888     0.43900
N947        N  0.72957399  0.33911518  0.14172624    -0.34400
N948        N  0.72477750  0.35871833  0.15154407    -0.28700
C949        C  0.74436261  0.36963532  0.15618569    -0.04800
C950        C  0.76223830  0.35645182  0.14844256     0.07400
C951        C  0.75227595  0.33727724  0.13932270     0.01200
H952        H  0.74551129  0.38575049  0.16487062     0.08900
H953        H  0.76094546  0.32241503  0.13289734     0.08000
N954        N  0.65708310  0.37555214  0.16200546    -0.35900
N955        N  0.64154176  0.35939860  0.16330928    -0.28100
C956        C  0.62087292  0.36909545  0.16542100    -0.03300
C957        C  0.62349956  0.39245731  0.16500171     0.05300
C958        C  0.64670913  0.39590610  0.16289297     0.03400
H959        H  0.60502476  0.35984502  0.16657448     0.08500
H960        H  0.65548410  0.41198912  0.16230127     0.07300
N961        N  0.65357188  0.13779431  0.30920950    -0.27000
N962        N  0.67360630  0.12910574  0.30383007    -0.34900
C963        C  0.67431086  0.12551454  0.28129397     0.01300
C964        C  0.65386952  0.13261596  0.27208670     0.07300
C965        C  0.64114768  0.14047214  0.29018815    -0.05800
H966        H  0.68908800  0.11951178  0.27213858     0.08000
H967        H  0.62428606  0.14780922  0.28957488     0.09200
Cu968      Cu  0.70028825  0.12621958  0.32676200     0.44200
Cu969      Cu  0.64449186  0.14542458  0.34222865     0.42000
Cu970      Cu  0.69090518  0.15136146  0.38239440     0.43900
N971        N  0.72608894  0.13236338  0.35006860    -0.34400
N972        N  0.72299324  0.14308324  0.36958334    -0.28700
C973        C  0.74344060  0.14673098  0.37929611    -0.04800
C974        C  0.76007328  0.13750985  0.36540277     0.07400
C975        C  0.74847018  0.12850001  0.34708657     0.01200
H976        H  0.74600359  0.15539944  0.39528047     0.08900
H977        H  0.75582430  0.12067752  0.33216505     0.08000
N978        N  0.65658854  0.15196600  0.39158019    -0.35900
N979        N  0.63986685  0.14885446  0.37685303    -0.28100
C980        C  0.61998706  0.14767252  0.38807474    -0.03300
C981        C  0.62431380  0.15035749  0.41095391     0.05300
C982        C  0.64764088  0.15328572  0.41262404     0.03400
H983        H  0.60358042  0.14515079  0.38013103     0.08500
H984        H  0.65742569  0.15553624  0.42803196     0.07300
N985        N  0.89874318  0.35201633  0.30791768    -0.27000
N986        N  0.90910292  0.33256256  0.30371191    -0.34900
C987        C  0.90946374  0.32906775  0.28111076     0.01300
C988        C  0.89842688  0.34703079  0.27074478     0.07300
C989        C  0.89185251  0.36124098  0.28821412    -0.05800
H990        H  0.91543610  0.31370600  0.27302974     0.08000
H991        H  0.88193264  0.37663006  0.28680936     0.09200
Cu992      Cu  0.91624048  0.30922703  0.32905831     0.44200
Cu993      Cu  0.89222473  0.36384259  0.34032030     0.42000
Cu994      Cu  0.89032164  0.32195858  0.38438844     0.43900
N995        N  0.90895264  0.28512534  0.35361924    -0.34400
N996        N  0.89800509  0.28942890  0.37280340    -0.28700
C997        C  0.89154355  0.26963971  0.38220163    -0.04800
C998        C  0.89899753  0.25214294  0.36839271     0.07400
C999        C  0.91008684  0.26255929  0.35055219     0.01200
H1000       H  0.88131897  0.26815552  0.39739229     0.08900
H1001       H  0.91664308  0.25444852  0.33541906     0.08000
N1002       N  0.88610256  0.35651227  0.39050569    -0.35900
N1003       N  0.88737731  0.37181373  0.37416296    -0.28100
C1004       C  0.88573216  0.39264389  0.38326035    -0.03300
C1005       C  0.88326488  0.39044464  0.40650783     0.05300
C1006       C  0.88332597  0.36727804  0.41051190     0.03400
H1007       H  0.88633164  0.40823051  0.37360113     0.08500
H1008       H  0.88223664  0.35891636  0.42683803     0.07300
N1009       N  0.14884758  0.35334328  0.20935189    -0.27000
N1010       N  0.16862375  0.36249191  0.21487673    -0.34900
C1011       C  0.16959350  0.36514988  0.23754985     0.01300
C1012       C  0.14963616  0.35689682  0.24679571     0.07300
C1013       C  0.13688737  0.34943895  0.22847891    -0.05800
H1014       H  0.18445008  0.37087678  0.24673531     0.08000
H1015       H  0.12047757  0.34118064  0.22905993     0.09200
Cu1016     Cu  0.19537489  0.36560159  0.19218921     0.44200
Cu1017     Cu  0.13999027  0.34572333  0.17594951     0.42000
Cu1018     Cu  0.18687952  0.34012567  0.13643035     0.43900
N1019       N  0.22175308  0.35666600  0.17059319    -0.34400
N1020       N  0.21892063  0.34579828  0.15111758    -0.28700
C1021       C  0.23954772  0.33958460  0.14316803    -0.04800
C1022       C  0.25602454  0.34727302  0.15818216     0.07400
C1023       C  0.24412201  0.35806049  0.17529008     0.01200
H1024       H  0.24234735  0.33014659  0.12766710     0.08900
H1025       H  0.25112059  0.36535464  0.19063577     0.08000
N1026       N  0.15259284  0.33932595  0.12647370    -0.35900
N1027       N  0.13561708  0.34178291  0.14103851    -0.28100
C1028       C  0.11586718  0.34269580  0.12948666    -0.03300
C1029       C  0.12041108  0.34048887  0.10649094     0.05300
C1030       C  0.14394223  0.33836426  0.10524079     0.03400
H1031       H  0.09936426  0.34531000  0.13725352     0.08500
H1032       H  0.15414098  0.33742330  0.08996905     0.07300
N1033       N  0.37932782  0.11855645  0.21786622    -0.27000
N1034       N  0.39118596  0.13715025  0.22201723    -0.34900
C1035       C  0.39426996  0.13919784  0.24456253     0.01300
C1036       C  0.38350778  0.12125034  0.25512438     0.07300
C1037       C  0.37413826  0.10851949  0.23773630    -0.05800
H1038       H  0.40209690  0.15364507  0.25273122     0.08000
H1039       H  0.36368086  0.09354177  0.23942812     0.09200
Cu1040     Cu  0.39772480  0.16169391  0.19770628     0.44200
Cu1041     Cu  0.36953909  0.10869507  0.18539981     0.42000
Cu1042     Cu  0.36977145  0.15295209  0.14325011     0.43900
N1043       N  0.39198387  0.18742115  0.17440217    -0.34400
N1044       N  0.38047775  0.18453763  0.15529234    -0.28700
C1045       C  0.37598277  0.20502703  0.14624632    -0.04800
C1046       C  0.38531772  0.22151907  0.16018083     0.07400
C1047       C  0.39542230  0.20974241  0.17780209     0.01200
H1048       H  0.36591261  0.20775596  0.13112248     0.08900
H1049       H  0.40305073  0.21691445  0.19290130     0.08000
N1050       N  0.36221489  0.11916103  0.13571551    -0.35900
N1051       N  0.36266768  0.10295767  0.15122885    -0.28100
C1052       C  0.35944403  0.08281401  0.14100281    -0.03300
C1053       C  0.35647954  0.08641536  0.11794826     0.05300
C1054       C  0.35837310  0.10970064  0.11519903     0.03400
H1055       H  0.36000287  0.06661615  0.14961737     0.08500
H1056       H  0.35841816  0.11891502  0.09932568     0.07300
N1057       N  0.21622104  0.12880869  0.36988810    -0.27000
N1058       N  0.21926716  0.14788218  0.38130346    -0.34900
C1059       C  0.24163072  0.15045751  0.38570083     0.01300
C1060       C  0.25317633  0.13226367  0.37631181     0.07300
C1061       C  0.23655914  0.11894317  0.36636498    -0.05800
H1062       H  0.24904975  0.16518253  0.39376380     0.08000
H1063       H  0.23909817  0.10343992  0.35688615     0.09200
Cu1064     Cu  0.19340511  0.17139483  0.38618984     0.44200
Cu1065     Cu  0.18458103  0.11717854  0.35930854     0.42000
Cu1066     Cu  0.13857303  0.15753366  0.36096540     0.43900
N1067       N  0.16840466  0.19521231  0.37896069    -0.34400
N1068       N  0.14918980  0.19053295  0.36820672    -0.28700
C1069       C  0.13881092  0.21017357  0.36266858    -0.04800
C1070       C  0.15196234  0.22793796  0.37070125     0.07400
C1071       C  0.17049959  0.21783090  0.38100320     0.01200
H1072       H  0.12305340  0.21142966  0.35326596     0.08900
H1073       H  0.18513371  0.22630687  0.38818843     0.08000
N1074       N  0.13377214  0.12284336  0.35577716    -0.35900
N1075       N  0.15076341  0.10818626  0.35444658    -0.28100
C1076       C  0.14226367  0.08717626  0.35158905    -0.03300
C1077       C  0.11872557  0.08858529  0.35119130     0.05300
C1078       C  0.11398816  0.11147436  0.35404093     0.03400
H1079       H  0.15247815  0.07192540  0.35102497     0.08500
H1080       H  0.09732984  0.11925795  0.35509275     0.07300
N1081       N  0.38207512  0.12379134  0.31676820    -0.27000
N1082       N  0.36201834  0.11462077  0.31253870    -0.34900
C1083       C  0.36002398  0.11102615  0.29005649     0.01300
C1084       C  0.37968336  0.11863089  0.27964688     0.07300
C1085       C  0.39327887  0.12668496  0.29705620    -0.05800
H1086       H  0.34473914  0.10505582  0.28176839     0.08000
H1087       H  0.40970769  0.13476018  0.29545016     0.09200
Cu1088     Cu  0.33680245  0.11238384  0.33697004     0.44200
Cu1089     Cu  0.39214802  0.13302945  0.34917621     0.42000
Cu1090     Cu  0.34792122  0.13853450  0.39220049     0.43900
N1091       N  0.31174386  0.12069517  0.36024601    -0.34400
N1092       N  0.31530894  0.13156486  0.37960184    -0.28700
C1093       C  0.29496102  0.13715320  0.38868367    -0.04800
C1094       C  0.27797044  0.12910245  0.37445789     0.07400
C1095       C  0.28924543  0.11872655  0.35671644     0.01200
H1096       H  0.29271109  0.14655718  0.40429129     0.08900
H1097       H  0.28167638  0.11137714  0.34166744     0.08000
N1098       N  0.38282298  0.14103351  0.39911335    -0.35900
N1099       N  0.39864840  0.13855300  0.38330740    -0.28100
C1100       C  0.41931629  0.13948269  0.39303343    -0.03300
C1101       C  0.41655083  0.14278342  0.41610072     0.05300
C1102       C  0.39318228  0.14392711  0.41937289     0.03400
H1103       H  0.43521722  0.13796005  0.38389572     0.08500
H1104       H  0.38438084  0.14609063  0.43537532     0.07300
N1105       N  0.14790381  0.35561366  0.30848065    -0.27000
N1106       N  0.13811127  0.33601081  0.30367528    -0.34900
C1107       C  0.13581616  0.33419180  0.28098860     0.01300
C1108       C  0.14496627  0.35339239  0.27108169     0.07300
C1109       C  0.15255684  0.36656240  0.28898363    -0.05800
H1110       H  0.12979676  0.31919594  0.27230074     0.08000
H1111       H  0.16157062  0.38249744  0.28789364     0.09200
Cu1112     Cu  0.13356844  0.31053077  0.32762776     0.44200
Cu1113     Cu  0.15590697  0.36580894  0.34124884     0.42000
Cu1114     Cu  0.15720005  0.32213493  0.38378168     0.43900
N1115       N  0.14053359  0.28561094  0.35163255    -0.34400
N1116       N  0.15063799  0.28971071  0.37130711    -0.28700
C1117       C  0.15586904  0.26982503  0.38124788    -0.04800
C1118       C  0.14832786  0.25242617  0.36739226     0.07400
C1119       C  0.13863800  0.26302244  0.34879965     0.01200
H1120       H  0.16471332  0.26815794  0.39727159     0.08900
H1121       H  0.13192661  0.25492823  0.33373377     0.08000
N1122       N  0.16077012  0.35646595  0.39135865    -0.35900
N1123       N  0.16060853  0.37235516  0.37554243    -0.28100
C1124       C  0.16259025  0.39278151  0.38548101    -0.03300
C1125       C  0.16413749  0.38972924  0.40875870     0.05300
C1126       C  0.16272010  0.36644464  0.41187030     0.03400
H1127       H  0.16193190  0.40867677  0.37641642     0.08500
H1128       H  0.16287285  0.35744077  0.42787862     0.07300
N1129       N  0.31800990  0.34704949  0.16275612    -0.27000
N1130       N  0.31452568  0.32739830  0.15251640    -0.34900
C1131       C  0.29208387  0.32478870  0.14866162     0.01300
C1132       C  0.28083312  0.34354692  0.15720553     0.07300
C1133       C  0.29776154  0.35726587  0.16614618    -0.05800
H1134       H  0.28443982  0.30983946  0.14124530     0.08000
H1135       H  0.29551945  0.37344516  0.17449307     0.09200
Cu1136     Cu  0.34009061  0.30360630  0.14773523     0.44200
Cu1137     Cu  0.35049157  0.35877767  0.17107815     0.42000
Cu1138     Cu  0.39488825  0.31591148  0.17382512     0.43900
N1139       N  0.36508807  0.27942089  0.15338396    -0.34400
N1140       N  0.38429663  0.28333711  0.16445224    -0.28700
C1141       C  0.39487386  0.26335876  0.16817074    -0.04800
C1142       C  0.38181335  0.24622614  0.15865980     0.07400
C1143       C  0.36314804  0.25705660  0.14939549     0.01200
H1144       H  0.41069261  0.26141854  0.17734617     0.08900
H1145       H  0.34852598  0.24913707  0.14155975     0.08000
N1146       N  0.40116910  0.35073974  0.17660991    -0.35900
N1147       N  0.38503256  0.36632741  0.17480575    -0.28100
C1148       C  0.39477362  0.38701114  0.17458437    -0.03300
C1149       C  0.41811143  0.38438079  0.17660164     0.05300
C1150       C  0.42154966  0.36117804  0.17799297     0.03400
H1151       H  0.38557489  0.40280566  0.17274317     0.08500
H1152       H  0.43775677  0.35250008  0.17890818     0.07300
O1153       O  0.49309028  0.46272166  0.15578735    -0.72700
O1154       O  0.53886811  0.51293180  0.15008826    -0.73700
O1155       O  0.54145762  0.46501685  0.15285665    -0.62300
O1156       O  0.49063385  0.51069250  0.15307293    -0.70700
O1157       O  0.49348898  0.51416505  0.19044815    -0.70300
O1158       O  0.54298030  0.46593287  0.19048129    -0.61500
O1159       O  0.54241886  0.51456824  0.18750163    -0.74000
O1160       O  0.49433889  0.46511980  0.19329440    -0.72800
Cu1161     Cu  0.51593559  0.48775455  0.15173488     1.04600
Cu1162     Cu  0.51836215  0.49004068  0.19179691     1.04300
C1163       C  0.48630735  0.45593567  0.17527054     0.93500
C1164       C  0.54812997  0.52159484  0.16771833     0.92600
C1165       C  0.55021229  0.45815668  0.17151379     0.84800
C1166       C  0.48410930  0.51985622  0.17165087     0.91100
O1167       O  0.14706182  0.51793095  0.47891667    -0.72700
O1168       O  0.14862815  0.47495598  0.53230330    -0.73700
O1169       O  0.14895739  0.52294123  0.52691513    -0.62300
O1170       O  0.14649557  0.46925114  0.48436530    -0.70700
O1171       O  0.18419388  0.46972571  0.48181301    -0.70300
O1172       O  0.18662600  0.52161813  0.52556856    -0.61500
O1173       O  0.18630404  0.47369494  0.52933952    -0.74000
O1174       O  0.18481094  0.51740964  0.47753203    -0.72800
Cu1175     Cu  0.14641771  0.49632379  0.50566042     1.04600
Cu1176     Cu  0.18675106  0.49565425  0.50355668     1.04300
C1177       C  0.16575359  0.52455863  0.46994967     0.93500
C1178       C  0.16787586  0.46714533  0.53874078     0.92600
C1179       C  0.16831033  0.53053272  0.53322315     0.84800
C1180       C  0.16502714  0.46108677  0.47637417     0.91100
O1181       O  0.54718935  0.13574446  0.48838806    -0.72700
O1182       O  0.49917876  0.13544534  0.53661583    -0.73700
O1183       O  0.49888765  0.13429618  0.48877126    -0.62300
O1184       O  0.54716328  0.13666005  0.53630108    -0.70700
O1185       O  0.54736956  0.17426314  0.53512613    -0.70300
O1186       O  0.49659872  0.17181941  0.48873568    -0.61500
O1187       O  0.49890734  0.17304167  0.53718305    -0.74000
O1188       O  0.54587389  0.17325315  0.48694676    -0.72800
Cu1189     Cu  0.52316943  0.13429848  0.51249760     1.04600
Cu1190     Cu  0.52215126  0.17446546  0.51188872     1.04300
C1191       C  0.55439293  0.15446027  0.48015632     0.93500
C1192       C  0.49155584  0.15407805  0.54470502     0.92600
C1193       C  0.48961298  0.15252453  0.48159897     0.84800
C1194       C  0.55488677  0.15563815  0.54331920     0.91100
O1195       O  0.89406045  0.47148665  0.47997255    -0.72700
O1196       O  0.89124187  0.52153672  0.52614677    -0.73700
O1197       O  0.89204653  0.47337289  0.52775504    -0.62300
O1198       O  0.89401433  0.51944838  0.47798040    -0.70700
O1199       O  0.85634179  0.51973922  0.47583883    -0.70300
O1200       O  0.85430430  0.47358384  0.52634886    -0.61500
O1201       O  0.85355705  0.52154826  0.52435668    -0.74000
O1202       O  0.85632121  0.47089805  0.47843831    -0.72800
Cu1203     Cu  0.89411665  0.49651361  0.50303276     1.04600
Cu1204     Cu  0.85378817  0.49645711  0.50113729     1.04300
C1205       C  0.87560842  0.46301173  0.47221660     0.93500
C1206       C  0.87201048  0.52940627  0.53268641     0.92600
C1207       C  0.87288680  0.46612582  0.53487267     0.84800
C1208       C  0.87571815  0.52687323  0.46891445     0.91100
O1209       O  0.49356840  0.79153031  0.53763879    -0.72700
O1210       O  0.54128983  0.78869789  0.48795442    -0.73700
O1211       O  0.54241667  0.79059510  0.53695864    -0.62300
O1212       O  0.49218908  0.78958138  0.48903879    -0.70700
O1213       O  0.49470453  0.82700947  0.48659017    -0.70300
O1214       O  0.54259810  0.82813369  0.53504447    -0.61500
O1215       O  0.54301382  0.82625471  0.48727798    -0.74000
O1216       O  0.49414625  0.82899738  0.53456682    -0.72800
Cu1217     Cu  0.51736676  0.78870967  0.51297525     1.04600
Cu1218     Cu  0.51860100  0.82881134  0.51088781     1.04300
C1219       C  0.48598418  0.81100241  0.54348585     0.93500
C1220       C  0.54985741  0.80703248  0.48001381     0.92600
C1221       C  0.55044748  0.80973578  0.54341252     0.84800
C1222       C  0.48577479  0.80833774  0.48011731     0.91100
O1223       O  0.49309601  0.51830602  0.86474219    -0.72700
O1224       O  0.54201186  0.47120499  0.86344951    -0.73700
O1225       O  0.54114497  0.51940322  0.86329135    -0.62300
O1226       O  0.49407060  0.47002149  0.86420627    -0.70700
O1227       O  0.49439731  0.46890479  0.82657840    -0.70300
O1228       O  0.54050214  0.51948139  0.82563507    -0.61500
O1229       O  0.54268485  0.47114781  0.82578038    -0.74000
O1230       O  0.49168594  0.51746454  0.82711489    -0.72800
Cu1231     Cu  0.51765030  0.49475148  0.86518071     1.04600
Cu1232     Cu  0.51728258  0.49432020  0.82492272     1.04300
C1233       C  0.48448978  0.52530226  0.84612718     0.93500
C1234       C  0.54988752  0.46344885  0.84477394     0.92600
C1235       C  0.54818327  0.52736246  0.84434726     0.84800
C1236       C  0.48707632  0.46132907  0.84554911     0.91100
O1237       O  0.04554977  0.00911601  0.32746026    -0.72700
O1238       O  0.99425521  0.96334728  0.32269959    -0.73700
O1239       O  0.99719481  0.01197077  0.32275399    -0.62300
O1240       O  0.04271305  0.96045730  0.32671730    -0.70700
O1241       O  0.04053382  0.96155070  0.36429794    -0.70300
O1242       O  0.99366477  0.01107188  0.36022810    -0.61500
O1243       O  0.99206437  0.96341123  0.36031100    -0.74000
O1244       O  0.04136796  0.00991294  0.36489781    -0.72800
Cu1245     Cu  0.02010424  0.98618338  0.32355033     1.04600
Cu1246     Cu  0.01685044  0.98640102  0.36367621     1.04300
C1247       C  0.05103576  0.01717466  0.34692587     0.93500
C1248       C  0.98485612  0.95646911  0.34105876     0.92600
C1249       C  0.98802134  0.01943223  0.34099260     0.84800
C1250       C  0.04901499  0.95308339  0.34614552     0.91100
O1251       O  0.04088102  0.97666287  0.67880038    -0.72700
O1252       O  0.99499460  0.02710912  0.68330424    -0.73700
O1253       O  0.99246398  0.97920342  0.68212911    -0.62300
O1254       O  0.04360398  0.02433671  0.68103682    -0.70700
O1255       O  0.04167069  0.02599398  0.64343051    -0.70300
O1256       O  0.99063040  0.98060588  0.64450598    -0.61500
O1257       O  0.99364658  0.02867788  0.64564218    -0.74000
O1258       O  0.03844597  0.97808646  0.64118593    -0.72800
Cu1259     Cu  0.01803945  0.00180586  0.68265800     1.04600
Cu1260     Cu  0.01599399  0.00341471  0.64240145     1.04300
C1261       C  0.04694323  0.96954382  0.65917369     0.93500
C1262       C  0.98704724  0.03576064  0.66501862     0.92600
C1263       C  0.98363988  0.97258069  0.66345965     0.84800
C1264       C  0.05085787  0.03214106  0.66215601     0.91100
O1265       O  0.33423004  0.96341487  0.03474677    -0.72700
O1266       O  0.34037193  0.01485052  0.99007946    -0.73700
O1267       O  0.33844952  0.96645343  0.98606804    -0.62300
O1268       O  0.33719982  0.01161410  0.03811863    -0.70700
O1269       O  0.37481561  0.00952539  0.04042061    -0.70300
O1270       O  0.37593111  0.96375105  0.98989204    -0.61500
O1271       O  0.37796065  0.01212094  0.99209133    -0.74000
O1272       O  0.37174940  0.96193931  0.03777417    -0.72800
Cu1273     Cu  0.33621903  0.98911296  0.01212934     1.04600
Cu1274     Cu  0.37637690  0.98675876  0.01509281     1.04300
C1275       C  0.35206734  0.95487765  0.04377590     0.93500
C1276       C  0.36009601  0.02163922  0.98403975     0.92600
C1277       C  0.35754693  0.95788051  0.97995981     0.84800
C1278       C  0.35594320  0.01766251  0.04743938     0.91100
O1279       O  0.04576754  0.36866704  0.97972897    -0.72700
O1280       O  0.99656401  0.36858520  0.02810163    -0.73700
O1281       O  0.04516378  0.36711055  0.02835517    -0.62300
O1282       O  0.99727329  0.37026599  0.97949355    -0.70700
O1283       O  0.99548018  0.33266787  0.97955196    -0.70300
O1284       O  0.04497455  0.32954601  0.02639509    -0.61500
O1285       O  0.99692408  0.33100354  0.02751084    -0.74000
O1286       O  0.04387164  0.33112749  0.97864820    -0.72800
Cu1287     Cu  0.02122812  0.37003064  0.00392319     1.04600
Cu1288     Cu  0.02024328  0.32984632  0.00290604     1.04300
C1289       C  0.05265982  0.34967851  0.97174333     0.93500
C1290       C  0.98932583  0.34957780  0.03570975     0.92600
C1291       C  0.05266020  0.34786304  0.03504780     0.84800
C1292       C  0.98855589  0.35183739  0.97214010     0.91100
O1293       O  0.65750147  0.01547901  0.99033549    -0.72700
O1294       O  0.65976687  0.96747506  0.03912520    -0.73700
O1295       O  0.65978379  0.01532594  0.03900928    -0.62300
O1296       O  0.65684230  0.96757905  0.99076403    -0.70700
O1297       O  0.69450905  0.96749587  0.98881429    -0.70300
O1298       O  0.69753311  0.01501016  0.03755430    -0.61500
O1299       O  0.69744888  0.96672673  0.03691513    -0.74000
O1300       O  0.69525497  0.01558327  0.98938926    -0.72800
Cu1301     Cu  0.65716008  0.99147952  0.01488418     1.04600
Cu1302     Cu  0.69749575  0.99118261  0.01309190     1.04300
C1303       C  0.67617070  0.02304340  0.98212636     0.93500
C1304       C  0.67894958  0.95954413  0.04572183     0.92600
C1305       C  0.67899956  0.02255036  0.04609300     0.84800
C1306       C  0.67522133  0.96011300  0.98196007     0.91100
O1307       O  0.03943958  0.67966987  0.97399297    -0.72700
O1308       O  0.99004186  0.68199234  0.02122737    -0.73700
O1309       O  0.03821978  0.67586275  0.02185873    -0.62300
O1310       O  0.99097407  0.68543699  0.97261757    -0.70700
O1311       O  0.98655661  0.64813404  0.97105803    -0.70300
O1312       O  0.03313925  0.63865283  0.01961154    -0.61500
O1313       O  0.98519368  0.64480911  0.01893226    -0.74000
O1314       O  0.03461523  0.64246150  0.97135106    -0.72800
Cu1315     Cu  0.01479853  0.68206436  0.99752713     1.04600
Cu1316     Cu  0.00974522  0.64225394  0.99510387     1.04300
C1317       C  0.04489821  0.66060175  0.96526624     0.93500
C1318       C  0.97987455  0.66393714  0.02768627     0.92600
C1319       C  0.04316488  0.65574223  0.02835424     0.84800
C1320       C  0.98108304  0.66797519  0.96428871     0.91100
C1321       C  0.44974439  0.40574802  0.19509739    -0.12000
C1322       C  0.43566756  0.40243889  0.17615894     0.05000
C1323       C  0.43838741  0.41663231  0.15712481    -0.08500
C1324       C  0.45484848  0.43382357  0.15736009    -0.08100
C1325       C  0.46882908  0.43754580  0.17641784    -0.02600
C1326       C  0.46604681  0.42320832  0.19552846     0.04200
N1327       N  0.47994852  0.42563727  0.21527582     0.66700
H1328       H  0.44786034  0.39484782  0.20984977     0.15600
H1329       H  0.45666008  0.44438696  0.14235966     0.15300
N1330       N  0.42525400  0.41315154  0.13700079     0.74400
O1331       O  0.47283354  0.43755468  0.23160713    -0.39000
O1332       O  0.49569472  0.41151134  0.21876477    -0.39000
O1333       O  0.40928051  0.42668163  0.13231978    -0.39700
O1334       O  0.43271425  0.40002338  0.12178434    -0.39700
C1335       C  0.15233484  0.40511940  0.44652769    -0.12000
C1336       C  0.16508508  0.40763737  0.42647815     0.05000
C1337       C  0.17806237  0.42756399  0.42347771    -0.07300
C1338       C  0.17786526  0.44445122  0.44014437    -0.08100
C1339       C  0.16462457  0.44228010  0.45978965    -0.02600
C1340       C  0.15182816  0.42230415  0.46306134     0.04200
N1341       N  0.13891889  0.41884275  0.48333357     0.66700
H1342       H  0.14232515  0.38989906  0.44920502     0.15600
H1343       H  0.18799846  0.45962177  0.43753200     0.15300
N1344       N  0.19213913  0.43071748  0.40395897     0.74400
O1345       O  0.11779771  0.42273950  0.48315584    -0.39000
O1346       O  0.14726960  0.40699846  0.49912739    -0.39000
O1347       O  0.18582869  0.44436096  0.38869370    -0.39700
O1348       O  0.21278168  0.42486194  0.40489382    -0.39700
C1349       C  0.43445538  0.16289992  0.44881193    -0.12000
C1350       C  0.43485843  0.14485124  0.43328646     0.05000
C1351       C  0.45320587  0.12941073  0.43392287    -0.07300
C1352       C  0.47083857  0.13246412  0.44960112    -0.08100
C1353       C  0.47078624  0.15076955  0.46485872    -0.02600
C1354       C  0.45222774  0.16604666  0.46446622     0.04200
N1355       N  0.45060213  0.18417249  0.48048436     0.66700
H1356       H  0.42034174  0.17481183  0.44862953     0.15600
H1357       H  0.48470233  0.12026037  0.44988033     0.15300
N1358       N  0.45357472  0.10981216  0.41963941     0.74400
O1359       O  0.45632463  0.20392142  0.47457771    -0.39000
O1360       O  0.43893341  0.18148658  0.49827441    -0.39000
O1361       O  0.46693152  0.10921627  0.40286704    -0.39700
O1362       O  0.44484405  0.09160315  0.42673381    -0.39700
C1363       C  0.08786694  0.03407771  0.33471245    -0.12000
C1364       C  0.06857100  0.03513632  0.34867586     0.05000
C1365       C  0.06623930  0.05356730  0.36387178    -0.07300
C1366       C  0.08274736  0.07068661  0.36434075    -0.08100
C1367       C  0.10202158  0.06970775  0.35030494    -0.02600
C1368       C  0.10468649  0.05092105  0.33561872     0.04200
N1369       N  0.12383454  0.04910278  0.32079578     0.66700
H1370       H  0.08997545  0.01997685  0.32302195     0.15600
H1371       H  0.08046943  0.08487259  0.37588724     0.15300
N1372       N  0.04671474  0.05576486  0.37819202     0.74400
O1373       O  0.13968193  0.03550650  0.32572660    -0.39000
O1374       O  0.12218683  0.05638574  0.30071529    -0.39000
O1375       O  0.04824807  0.05036374  0.39887556    -0.39700
O1376       O  0.03024523  0.06791128  0.37173586    -0.39700
C1377       C  0.33997692  0.05244018  0.06535564    -0.12000
C1378       C  0.35584668  0.03465121  0.06604514     0.05000
C1379       C  0.37165922  0.03390020  0.08415386    -0.07300
C1380       C  0.37125657  0.05072628  0.10097347    -0.08100
C1381       C  0.35572243  0.06878262  0.09997885    -0.02600
C1382       C  0.33995919  0.06955804  0.08190800     0.04200
N1383       N  0.32331653  0.08715621  0.08047834     0.66700
H1384       H  0.32771498  0.05333635  0.05157719     0.15600
H1385       H  0.38348930  0.04984377  0.11477443     0.15300
N1386       N  0.38786030  0.01590631  0.08610776     0.74400
O1387       O  0.32666057  0.10355538  0.06713994    -0.39000
O1388       O  0.30343144  0.08339404  0.08763205    -0.39000
O1389       O  0.40820791  0.01934358  0.08018035    -0.39700
O1390       O  0.38333925  0.99915274  0.09863884    -0.39700
C1391       C  0.08763375  0.33036500  0.05135127    -0.12000
C1392       C  0.07026021  0.34661219  0.05301908     0.05000
C1393       C  0.06977184  0.36113684  0.07203410    -0.07300
C1394       C  0.08623734  0.35887858  0.08916895    -0.08100
C1395       C  0.10368872  0.34257964  0.08756988    -0.02600
C1396       C  0.10444267  0.32844582  0.06818287     0.04200
N1397       N  0.12159836  0.31146190  0.06564117     0.66700
H1398       H  0.08826382  0.31912189  0.03676643     0.15600
H1399       H  0.08538751  0.36999470  0.10381212     0.15300
N1400       N  0.05218614  0.37773461  0.07452751     0.74400
O1401       O  0.11726853  0.29137910  0.07160696    -0.39000
O1402       O  0.13803770  0.31508397  0.05234012    -0.39000
O1403       O  0.03217428  0.37156919  0.07926134    -0.39700
O1404       O  0.05584556  0.39794658  0.06854412    -0.39700
C1405       C  0.86491957  0.40768217  0.44053476    -0.12000
C1406       C  0.88150010  0.40892346  0.42343358     0.05000
C1407       C  0.89596599  0.42799734  0.42260298    -0.07300
C1408       C  0.89370194  0.44525775  0.43872512    -0.08100
C1409       C  0.87690575  0.44427927  0.45557397    -0.02600
C1410       C  0.86230715  0.42526495  0.45639977     0.04200
N1411       N  0.84534371  0.42313455  0.47365786     0.66700
H1412       H  0.85367750  0.39309436  0.44138942     0.15600
H1413       H  0.90516808  0.45968725  0.43796485     0.15300
N1414       N  0.91366775  0.42972541  0.40606876     0.74400
O1415       O  0.82511027  0.42886974  0.46930200    -0.39000
O1416       O  0.84928202  0.41076652  0.49070079    -0.39000
O1417       O  0.91175468  0.44392068  0.39014988    -0.39700
O1418       O  0.93294348  0.42129905  0.41036290    -0.39700
C1419       C  0.60459771  0.17068923  0.44214366    -0.12000
C1420       C  0.60731392  0.15085526  0.42937099     0.05000
C1421       C  0.59287830  0.13227556  0.43351622    -0.07300
C1422       C  0.57598617  0.13384828  0.45019354    -0.08100
C1423       C  0.57267684  0.15392211  0.46267037    -0.02600
C1424       C  0.58729735  0.17253778  0.45845851     0.04200
N1425       N  0.58502311  0.19338785  0.47058894     0.66700
H1426       H  0.61560161  0.18514033  0.43896361     0.15600
H1427       H  0.56513468  0.11924176  0.45313647     0.15300
N1428       N  0.59541993  0.11153257  0.42121972     0.74400
O1429       O  0.59882198  0.19778074  0.48639399    -0.39000
O1430       O  0.57382915  0.20937624  0.46174418    -0.39000
O1431       O  0.60702980  0.09566262  0.42975041    -0.39700
O1432       O  0.58206751  0.10726668  0.40498517    -0.39700
C1433       C  0.58879326  0.40754964  0.18393529    -0.12000
C1434       C  0.60530221  0.40981337  0.16688879     0.05000
C1435       C  0.60386846  0.42840454  0.15185471    -0.07300
C1436       C  0.58570454  0.44374044  0.15362868    -0.08100
C1437       C  0.56922977  0.44157263  0.17075336    -0.02600
C1438       C  0.57116915  0.42345435  0.18630847     0.04200
N1439       N  0.55489092  0.42033873  0.20400835     0.66700
H1440       H  0.58973268  0.39341935  0.19572700     0.15600
H1441       H  0.58463616  0.45767908  0.14161507     0.15300
N1442       N  0.62029219  0.43164394  0.13426913     0.74400
O1443       O  0.53956595  0.40559099  0.20151021    -0.39000
O1444       O  0.55939427  0.42752542  0.22369573    -0.39000
O1445       O  0.61560426  0.42540712  0.11430505    -0.39700
O1446       O  0.63633270  0.44551240  0.13739722    -0.39700
C1447       C  0.66469483  0.05734973  0.09837424    -0.12000
C1448       C  0.68068473  0.07496916  0.09692742     0.05000
C1449       C  0.69660295  0.07477293  0.07895807    -0.07300
C1450       C  0.69601620  0.05734218  0.06277690    -0.08100
C1451       C  0.67973954  0.04001402  0.06405432    -0.02600
C1452       C  0.66413989  0.03994281  0.08226373     0.04200
N1453       N  0.64846450  0.02168331  0.08536451     0.66700
H1454       H  0.65241043  0.05703592  0.11214363     0.15600
H1455       H  0.70829039  0.05747577  0.04898107     0.15300
N1456       N  0.71413141  0.09146027  0.07745360     0.74400
O1457       O  0.65445078  0.00471103  0.09697546    -0.39000
O1458       O  0.62762610  0.02475871  0.08116938    -0.39000
O1459       O  0.73336226  0.08727425  0.08604074    -0.39700
O1460       O  0.71229423  0.10725060  0.06311439    -0.39700
C1461       C  0.95258597  0.07159950  0.32514769    -0.12000
C1462       C  0.93615846  0.07139128  0.34247353     0.05000
C1463       C  0.93674564  0.05385463  0.35871286    -0.07300
C1464       C  0.95366816  0.03722800  0.35759279    -0.08100
C1465       C  0.97018205  0.03730890  0.34036623    -0.02600
C1466       C  0.96934672  0.05461687  0.32374013     0.04200
N1467       N  0.98569726  0.05570400  0.30580793     0.66700
H1468       H  0.95233824  0.08501889  0.31251539     0.15600
H1469       H  0.95390439  0.02410398  0.37053797     0.15300
N1470       N  0.92112285  0.05336144  0.37728449     0.74400
O1471       O  0.98065998  0.04762597  0.28660132    -0.39000
O1472       O  0.00210513  0.06940543  0.30740092    -0.39000
O1473       O  0.90538077  0.03882427  0.37734645    -0.39700
O1474       O  0.92641710  0.06313115  0.39561086    -0.39700
C1475       C  0.93984082  0.36256123  0.07570345    -0.12000
C1476       C  0.94029782  0.34350077  0.08997171     0.05000
C1477       C  0.95739843  0.32702466  0.08672707    -0.07300
C1478       C  0.97303807  0.32949348  0.06897176    -0.08100
C1479       C  0.97254101  0.34846979  0.05453274    -0.02600
C1480       C  0.95592724  0.36537595  0.05834596     0.04200
N1481       N  0.95470095  0.38520852  0.04449580     0.66700
H1482       H  0.92696459  0.37555139  0.07816850     0.15600
H1483       H  0.98582488  0.31640007  0.06656795     0.15300
N1484       N  0.95869060  0.30726841  0.10070855     0.74400
O1485       O  0.94103655  0.38562293  0.02796281    -0.39000
O1486       O  0.96258963  0.40363028  0.05203328    -0.39000
O1487       O  0.95075634  0.28879888  0.09334177    -0.39700
O1488       O  0.97266795  0.30689682  0.11698340    -0.39700
C1489       C  0.60259271  0.82005364  0.44483767    -0.12000
C1490       C  0.60039763  0.80471670  0.42674706     0.05000
C1491       C  0.58141582  0.79003446  0.42634015    -0.07300
C1492       C  0.56550935  0.79056123  0.44417449    -0.08100
C1493       C  0.56761245  0.80613583  0.46210306    -0.02600
C1494       C  0.58632393  0.82116292  0.46216954     0.04200
N1495       N  0.58938061  0.83738440  0.47994686     0.66700
H1496       H  0.61691370  0.83165887  0.44535697     0.15600
H1497       H  0.55108380  0.77907898  0.44369665     0.15300
N1498       N  0.57819283  0.77425408  0.40821448     0.74400
O1499       O  0.60200939  0.83246498  0.49657108    -0.39000
O1500       O  0.58436880  0.85787886  0.47632150    -0.39000
O1501       O  0.58350339  0.75373368  0.41118642    -0.39700
O1502       O  0.56511563  0.77944881  0.39202150    -0.39700
C1503       C  0.86400349  0.57621162  0.42862499    -0.12000
C1504       C  0.88289983  0.57501912  0.41411142     0.05000
C1505       C  0.89924011  0.55784810  0.41763089    -0.07300
C1506       C  0.89652125  0.54248760  0.43558824    -0.08100
C1507       C  0.87746522  0.54347384  0.45001421    -0.02600
C1508       C  0.86099797  0.56053553  0.44626491     0.04200
N1509       N  0.84155491  0.56275124  0.46064944     0.66700
H1510       H  0.85130399  0.58938754  0.42614217     0.15600
H1511       H  0.90944147  0.52954660  0.43817343     0.15300
N1512       N  0.91916049  0.55634147  0.40378576     0.74400
O1513       O  0.84198065  0.57691075  0.47672172    -0.39000
O1514       O  0.82268112  0.55494863  0.45406867    -0.39000
O1515       O  0.93749079  0.56504999  0.41075472    -0.39700
O1516       O  0.91981096  0.54199553  0.38788899    -0.39700
C1517       C  0.59888737  0.56142792  0.17649093    -0.12000
C1518       C  0.59825001  0.57430877  0.15648371     0.05000
C1519       C  0.58087752  0.57003817  0.14051811    -0.07300
C1520       C  0.56480690  0.55296515  0.14467141    -0.08100
C1521       C  0.56533596  0.53997342  0.16471045    -0.02600
C1522       C  0.58259753  0.54455483  0.18084392     0.04200
N1523       N  0.58445746  0.53172340  0.20132089     0.66700
H1524       H  0.61218370  0.56452451  0.18893731     0.15600
H1525       H  0.55179045  0.54982117  0.13195093     0.15300
N1526       N  0.58003604  0.58197605  0.11942138     0.74400
O1527       O  0.59679802  0.51420041  0.20157652    -0.39000
O1528       O  0.57855795  0.54067519  0.21988614    -0.39000
O1529       O  0.58879649  0.57305481  0.10199906    -0.39700
O1530       O  0.56611350  0.59810959  0.11706093    -0.39700
C1531       C  0.96314993  0.68344185  0.06136610    -0.12000
C1532       C  0.96219218  0.66543453  0.04571587     0.05000
C1533       C  0.94445711  0.64937562  0.04782541    -0.07300
C1534       C  0.92801120  0.65193319  0.06485660    -0.08100
C1535       C  0.92909339  0.66982580  0.08051216    -0.02600
C1536       C  0.94708312  0.68554770  0.07886218     0.04200
N1537       N  0.94904911  0.70402571  0.09444350     0.66700
H1538       H  0.97672964  0.69585795  0.06027750     0.15600
H1539       H  0.91448258  0.63947395  0.06612195     0.15300
N1540       N  0.94263969  0.63048036  0.03275027     0.74400
O1541       O  0.96232520  0.70220461  0.11119782    -0.39000
O1542       O  0.94247137  0.72348107  0.08839077    -0.39000
O1543       O  0.94929369  0.61123116  0.03936580    -0.39700
O1544       O  0.92955421  0.63181261  0.01580479    -0.39700
C1545       C  0.94434137  0.90816552  0.32652695    -0.12000
C1546       C  0.92737200  0.91100781  0.34306466     0.05000
C1547       C  0.92897309  0.92960132  0.35812019    -0.07300
C1548       C  0.94766562  0.94427602  0.35678139    -0.08100
C1549       C  0.96489907  0.94110204  0.34054353    -0.02600
C1550       C  0.96289708  0.92297050  0.32505182     0.04200
N1551       N  0.98042479  0.91803444  0.30903306     0.66700
H1552       H  0.94343979  0.89399638  0.31475389     0.15600
H1553       H  0.94884170  0.95820074  0.36883090     0.15300
N1554       N  0.91262365  0.93315380  0.37572410     0.74400
O1555       O  0.97873628  0.92571452  0.28910739    -0.39000
O1556       O  0.99302586  0.90108129  0.31256458    -0.39000
O1557       O  0.91660906  0.92547928  0.39533196    -0.39700
O1558       O  0.89782800  0.94849633  0.37332753    -0.39700
C1559       C  0.69501556  0.90844979  0.08195948    -0.12000
C1560       C  0.67881977  0.90978409  0.09943541     0.05000
C1561       C  0.66309949  0.92792954  0.09933845    -0.07300
C1562       C  0.66348457  0.94380747  0.08165047    -0.08100
C1563       C  0.67957645  0.94238698  0.06409968    -0.02600
C1564       C  0.69573129  0.92463049  0.06455203     0.04200
N1565       N  0.71234203  0.92214970  0.04699861     0.66700
H1566       H  0.70728286  0.89466085  0.08178305     0.15600
H1567       H  0.65100777  0.95741495  0.08166096     0.15300
N1568       N  0.64585467  0.92989746  0.11632297     0.74400
O1569       O  0.73233444  0.92918927  0.05037910    -0.39000
O1570       O  0.70868340  0.90836477  0.03101080    -0.39000
O1571       O  0.64801117  0.94463026  0.13172651    -0.39700
O1572       O  0.62648397  0.92145571  0.11259497    -0.39700
C1573       C  0.18041828  0.53660713  0.43220737    -0.12000
C1574       C  0.16558857  0.54043887  0.45051148     0.05000
C1575       C  0.15150966  0.55979281  0.45020269    -0.07300
C1576       C  0.15247206  0.57483115  0.43187221    -0.08100
C1577       C  0.16705153  0.57091778  0.41341967    -0.02600
C1578       C  0.18112188  0.55149101  0.41363783     0.04200
N1579       N  0.19686179  0.54709759  0.39567239     0.66700
H1580       H  0.19155358  0.52187810  0.43229681     0.15600
H1581       H  0.14156999  0.58972296  0.43207992     0.15300
N1582       N  0.13734982  0.56535848  0.46908012     0.74400
O1583       O  0.21682542  0.55485279  0.39704544    -0.39000
O1584       O  0.19267626  0.53142580  0.38168580    -0.39000
O1585       O  0.14402253  0.58033871  0.48284584    -0.39700
O1586       O  0.11651426  0.56022772  0.46846003    -0.39700
C1587       C  0.43316077  0.79755298  0.44324216    -0.12000
C1588       C  0.43666941  0.81307326  0.42545969     0.05000
C1589       C  0.45650404  0.82661389  0.42587743    -0.07300
C1590       C  0.47216346  0.82437201  0.44366860    -0.08100
C1591       C  0.46870084  0.80893456  0.46145333    -0.02600
C1592       C  0.44887400  0.79538323  0.46115227     0.04200
N1593       N  0.44351161  0.78064532  0.47963282     0.66700
H1594       H  0.41789357  0.78719634  0.44343519     0.15600
H1595       H  0.48715269  0.83514548  0.44370071     0.15300
N1596       N  0.46030864  0.84393087  0.40936153     0.74400
O1597       O  0.43158914  0.78815688  0.49581106    -0.39000
O1598       O  0.44529731  0.75949138  0.47694164    -0.39000
O1599       O  0.45372458  0.86386958  0.41357410    -0.39700
O1600       O  0.47501696  0.84076002  0.39406348    -0.39700
C1601       C  0.44781437  0.53382298  0.15487961    -0.12000
C1602       C  0.46522049  0.53672375  0.17098310     0.05000
C1603       C  0.46444913  0.55597101  0.18529058    -0.07300
C1604       C  0.44675958  0.57185884  0.18298598    -0.08100
C1605       C  0.42936967  0.56889505  0.16690677    -0.02600
C1606       C  0.42995715  0.54948859  0.15281733     0.04200
N1607       N  0.41333366  0.54601413  0.13543931     0.66700
H1608       H  0.44810270  0.51922513  0.14361225     0.15600
H1609       H  0.44661178  0.58667390  0.19396187     0.15300
N1610       N  0.48202590  0.56030559  0.20146485     0.74400
O1611       O  0.41691348  0.55388785  0.11583778    -0.39000
O1612       O  0.39842001  0.53085138  0.13803690    -0.39000
O1613       O  0.49746129  0.57435082  0.19660127    -0.39700
O1614       O  0.47890191  0.55490561  0.22196314    -0.39700
C1615       C  0.32971841  0.90995833  0.08524816    -0.12000
C1616       C  0.34992918  0.90362543  0.09615931     0.05000
C1617       C  0.37041649  0.91427968  0.09005589    -0.07300
C1618       C  0.37057594  0.93051086  0.07281216    -0.08100
C1619       C  0.35044919  0.93706145  0.06164853    -0.02600
C1620       C  0.32967672  0.92680542  0.06837983     0.04200
N1621       N  0.30837545  0.93347938  0.05874466     0.66700
H1622       H  0.31378255  0.90203810  0.09013779     0.15600
H1623       H  0.38673485  0.93824396  0.06840473     0.15300
N1624       N  0.39131912  0.90869044  0.10111035     0.74400
O1625       O  0.29985842  0.92178842  0.04293414    -0.39000
O1626       O  0.29586123  0.94719984  0.06948332    -0.39000
O1627       O  0.40513125  0.89547310  0.09138897    -0.39700
O1628       O  0.39822800  0.92099121  0.11723903    -0.39700
C1629       C  0.08614898  0.90113854  0.33455588    -0.12000
C1630       C  0.10246971  0.90287760  0.35185448     0.05000
C1631       C  0.10067480  0.92095163  0.36752214    -0.07300
C1632       C  0.08292334  0.93675884  0.36549514    -0.08100
C1633       C  0.06691477  0.93532245  0.34784647    -0.02600
C1634       C  0.06865809  0.91715441  0.33227018     0.04200
N1635       N  0.05220960  0.91386492  0.31474258     0.66700
H1636       H  0.08710655  0.88732216  0.32238964     0.15600
H1637       H  0.08184860  0.95050457  0.37773911     0.15300
N1638       N  0.11618716  0.92315522  0.38606240     0.74400
O1639       O  0.05585842  0.92229749  0.29539239    -0.39000
O1640       O  0.03868448  0.89736277  0.31642531    -0.39000
O1641       O  0.13119281  0.93843268  0.38538983    -0.39700
O1642       O  0.11128667  0.91416341  0.40487791    -0.39700
C1643       C  0.07695053  0.63258224  0.07828237    -0.12000
C1644       C  0.09672541  0.64587513  0.07734276     0.05000
C1645       C  0.09869995  0.66241531  0.06011445    -0.07300
C1646       C  0.08086898  0.66556771  0.04461169    -0.08100
C1647       C  0.06115895  0.65220225  0.04554802    -0.02600
C1648       C  0.05934743  0.63542470  0.06253720     0.04200
N1649       N  0.03938806  0.62176776  0.06468350     0.66700
H1650       H  0.07514516  0.61968479  0.09132540     0.15600
H1651       H  0.08255736  0.67848299  0.03156393     0.15300
N1652       N  0.11819528  0.67678167  0.05861943     0.74400
O1653       O  0.03925486  0.60211781  0.05619122    -0.39000
O1654       O  0.02473520  0.62687633  0.07950555    -0.39000
O1655       O  0.13240956  0.67358580  0.04286573    -0.39700
O1656       O  0.11811464  0.69550643  0.06899820    -0.39700
C1657       C  0.58830493  0.80089525  0.59565801    -0.12000
C1658       C  0.60429263  0.81840601  0.59270771     0.05000
C1659       C  0.60307730  0.83196097  0.57305876    -0.07300
C1660       C  0.58561179  0.82853956  0.55714834    -0.08100
C1661       C  0.56941719  0.81120360  0.56010778    -0.02600
C1662       C  0.57125388  0.79695606  0.57927416     0.04200
N1663       N  0.55542594  0.77902274  0.58315299     0.66700
H1664       H  0.58908878  0.79048268  0.61025822     0.15600
H1665       H  0.58464211  0.83940965  0.54281287     0.15300
N1666       N  0.61861616  0.85022060  0.56944200     0.74400
O1667       O  0.56003164  0.75942176  0.57586913    -0.39000
O1668       O  0.54083077  0.78123496  0.59869714    -0.39000
O1669       O  0.63451785  0.84781825  0.55523861    -0.39700
O1670       O  0.61322345  0.86989640  0.57593935    -0.39700
C1671       C  0.56457423  0.56159335  0.86260317    -0.12000
C1672       C  0.56486201  0.54622304  0.84438944     0.05000
C1673       C  0.58107534  0.54927936  0.82690339    -0.07300
C1674       C  0.59666720  0.56720322  0.82815639    -0.08100
C1675       C  0.59615242  0.58261655  0.84625661    -0.02600
C1676       C  0.57984984  0.57975086  0.86359212     0.04200
N1677       N  0.57928650  0.59441717  0.88290054     0.66700
H1678       H  0.55227739  0.55958744  0.87623164     0.15600
H1679       H  0.60921584  0.56917954  0.81475331     0.15300
N1680       N  0.58271314  0.53382668  0.80830354     0.74400
O1681       O  0.56429794  0.60971934  0.88398538    -0.39000
O1682       O  0.58963678  0.58859238  0.90075488    -0.39000
O1683       O  0.57427894  0.53931404  0.78937391    -0.39700
O1684       O  0.59751016  0.51834482  0.80902661    -0.39700
C1685       C  0.85345866  0.56946664  0.58027595    -0.12000
C1686       C  0.87209448  0.58423823  0.58124262     0.05000
C1687       C  0.89059826  0.58074587  0.56643010    -0.07300
C1688       C  0.89018597  0.56271794  0.55099500    -0.08100
C1689       C  0.87142329  0.54805697  0.54963930    -0.02600
C1690       C  0.85281296  0.55161880  0.56451932     0.04200
N1691       N  0.83346169  0.53696242  0.56440126     0.66700
H1692       H  0.83916881  0.57193346  0.59172830     0.15600
H1693       H  0.90470783  0.56029974  0.53983028     0.15300
N1694       N  0.91041714  0.59470489  0.56755174     0.74400
O1695       O  0.83250159  0.52087000  0.57848630    -0.39000
O1696       O  0.81549010  0.54331689  0.55452304    -0.39000
O1697       O  0.92738084  0.58800426  0.57886695    -0.39700
O1698       O  0.91294062  0.61042762  0.55325106    -0.39700
C1699       C  0.94447789  0.68637287  0.91382124    -0.12000
C1700       C  0.92706435  0.67009433  0.91467311     0.05000
C1701       C  0.92720010  0.65398287  0.93236167    -0.07300
C1702       C  0.94483448  0.65400597  0.94827890    -0.08100
C1703       C  0.96244577  0.67004776  0.94739161    -0.02600
C1704       C  0.96192864  0.68671986  0.93016561     0.04200
N1705       N  0.97935845  0.70349082  0.92841597     0.66700
H1706       H  0.94455344  0.69891606  0.90031597     0.15600
H1707       H  0.94477636  0.64113572  0.96148220     0.15300
N1708       N  0.91031686  0.63662025  0.93372322     0.74400
O1709       O  0.99629131  0.69978648  0.91575765    -0.39000
O1710       O  0.97518185  0.72351441  0.93474660    -0.39000
O1711       O  0.91468172  0.61725210  0.92570031    -0.39700
O1712       O  0.89411140  0.63881474  0.94762019    -0.39700
C1713       C  0.65592476  0.92444450  0.93157420    -0.12000
C1714       C  0.67563812  0.91185993  0.92716694     0.05000
C1715       C  0.69469116  0.91436381  0.94141750    -0.07300
C1716       C  0.69408473  0.93007076  0.95918760    -0.08100
C1717       C  0.67445042  0.94295893  0.96359378    -0.02600
C1718       C  0.65494861  0.93957506  0.94985564     0.04200
N1719       N  0.63405173  0.95127038  0.95407697     0.66700
H1720       H  0.64096227  0.92217381  0.92095576     0.15600
H1721       H  0.70915667  0.93209140  0.96968921     0.15300
N1722       N  0.71500023  0.90156615  0.93770100     0.74400
O1723       O  0.62864848  0.96784239  0.94167300    -0.39000
O1724       O  0.61881784  0.94163116  0.96567493    -0.39000
O1725       O  0.73132427  0.91060210  0.92713958    -0.39700
O1726       O  0.71866561  0.88413976  0.94958278    -0.39700
C1727       C  0.93305830  0.93539186  0.67946219    -0.12000
C1728       C  0.93387998  0.91905217  0.66216892     0.05000
C1729       C  0.95108177  0.92055854  0.64548070    -0.07300
C1730       C  0.96660709  0.93847754  0.64606567    -0.08100
C1731       C  0.96601962  0.95468812  0.66346224    -0.02600
C1732       C  0.94921064  0.95285954  0.68054853     0.04200
N1733       N  0.94807217  0.96865753  0.69892239     0.66700
H1734       H  0.92006138  0.93430757  0.69252612     0.15600
H1735       H  0.97961690  0.93940468  0.63299285     0.15300
N1736       N  0.95279454  0.90439464  0.62747333     0.74400
O1737       O  0.93524332  0.98574687  0.69723817    -0.39000
O1738       O  0.95509008  0.96270630  0.71828765    -0.39000
O1739       O  0.94506407  0.90949091  0.60814022    -0.39700
O1740       O  0.96711342  0.88851043  0.62911141    -0.39700
C1741       C  0.44607356  0.80227107  0.59386016    -0.12000
C1742       C  0.43076750  0.82027617  0.59079173     0.05000
C1743       C  0.43343993  0.83462792  0.57181529    -0.07300
C1744       C  0.45161212  0.83120568  0.55688427    -0.08100
C1745       C  0.46699126  0.81323127  0.55989481    -0.02600
C1746       C  0.46378793  0.79832818  0.57839269     0.04200
N1747       N  0.47866661  0.77957079  0.58221140     0.66700
H1748       H  0.44410239  0.79095653  0.60828065     0.15600
H1749       H  0.45355810  0.84269243  0.54259594     0.15300
N1750       N  0.41836659  0.85321424  0.56776466     0.74400
O1751       O  0.49365371  0.78114206  0.59746170    -0.39000
O1752       O  0.47277889  0.76016304  0.57536917    -0.39000
O1753       O  0.42424019  0.87285723  0.57390533    -0.39700
O1754       O  0.40283069  0.85105523  0.55311782    -0.39700
C1755       C  0.19011150  0.55173744  0.56246849    -0.12000
C1756       C  0.16989422  0.54934737  0.54990502     0.05000
C1757       C  0.15193614  0.56491878  0.55374043    -0.07300
C1758       C  0.15476040  0.58251459  0.56947882    -0.08100
C1759       C  0.17487313  0.58460425  0.58207525    -0.02600
C1760       C  0.19261064  0.56896560  0.57860524     0.04200
N1761       N  0.21354284  0.57076524  0.59080126     0.66700
H1762       H  0.20412213  0.53997079  0.55996007     0.15600
H1763       H  0.14094039  0.59448062  0.57215074     0.15300
N1764       N  0.13085269  0.56339903  0.54173346     0.74400
O1765       O  0.21715394  0.55774177  0.60741415    -0.39000
O1766       O  0.23005663  0.58109163  0.58184131    -0.39000
O1767       O  0.11459912  0.55253097  0.55051930    -0.39700
O1768       O  0.12662642  0.57755904  0.52625089    -0.39700
C1769       C  0.44755062  0.57589226  0.86247872    -0.12000
C1770       C  0.43021827  0.57483766  0.84611847     0.05000
C1771       C  0.43045316  0.55685111  0.83025211    -0.07300
C1772       C  0.44838899  0.54108990  0.83041568    -0.08100
C1773       C  0.46588718  0.54236152  0.84660947    -0.02600
C1774       C  0.46507596  0.55980349  0.86308202     0.04200
N1775       N  0.48236375  0.56207584  0.88000901     0.66700
H1776       H  0.44752071  0.58938050  0.87503282     0.15600
H1777       H  0.44851093  0.52760624  0.81785158     0.15300
N1778       N  0.41315415  0.55472910  0.81334495     0.74400
O1779       O  0.49879149  0.57537454  0.87645489    -0.39000
O1780       O  0.47821022  0.55576371  0.90006366    -0.39000
O1781       O  0.41706080  0.56184232  0.79351826    -0.39700
O1782       O  0.39719650  0.54076187  0.81644218    -0.39700
C1783       C  0.09883500  0.67159368  0.93109401    -0.12000
C1784       C  0.09576587  0.65696548  0.91254912     0.05000
C1785       C  0.07602248  0.64337238  0.91167465    -0.07300
C1786       C  0.05992043  0.64460705  0.92919998    -0.08100
C1787       C  0.06279857  0.65950016  0.94756558    -0.02600
C1788       C  0.08254128  0.67314821  0.94840805     0.04200
N1789       N  0.08681193  0.68797877  0.96713119     0.66700
H1790       H  0.11400759  0.68205342  0.93210940     0.15600
H1791       H  0.04488047  0.63394522  0.92829970     0.15300
N1792       N  0.07251667  0.62747425  0.89370864     0.74400
O1793       O  0.09888685  0.68104351  0.98344600    -0.39000
O1794       O  0.08354131  0.70899450  0.96475440    -0.39000
O1795       O  0.07843784  0.60709934  0.89655574    -0.39700
O1796       O  0.05871872  0.63228287  0.87800146    -0.39700
C1797       C  0.08061445  0.91827187  0.63965331    -0.12000
C1798       C  0.09965006  0.91939221  0.65400887     0.05000
C1799       C  0.10127416  0.93732228  0.66982770    -0.07300
C1800       C  0.08360225  0.95313296  0.67154037    -0.08100
C1801       C  0.06458480  0.95192842  0.65723919    -0.02600
C1802       C  0.06331057  0.93449501  0.64087888     0.04200
N1803       N  0.04431089  0.93260998  0.62582977     0.66700
H1804       H  0.07923632  0.90480297  0.62715126     0.15600
H1805       H  0.08492914  0.96668737  0.68396451     0.15300
N1806       N  0.12032572  0.93941372  0.68474845     0.74400
O1807       O  0.04607956  0.93994346  0.60577378    -0.39000
O1808       O  0.02840892  0.91907272  0.63063690    -0.39000
O1809       O  0.13507115  0.95445751  0.68082407    -0.39700
O1810       O  0.11925562  0.93072760  0.70429750    -0.39700
C1811       C  0.37058679  0.90498759  0.94537979    -0.12000
C1812       C  0.36271241  0.91101549  0.92364362     0.05000
C1813       C  0.35300003  0.93284416  0.92072712    -0.07300
C1814       C  0.35080832  0.94755853  0.93943032    -0.08100
C1815       C  0.35868247  0.94133836  0.96102713    -0.02600
C1816       C  0.36884109  0.91986394  0.96385789     0.04200
N1817       N  0.37674730  0.91252142  0.98559913     0.66700
H1818       H  0.37837557  0.88852373  0.94816725     0.15600
H1819       H  0.34329346  0.96421249  0.93693734     0.15300
N1820       N  0.34490002  0.94033243  0.89912512     0.74400
O1821       O  0.36347290  0.90147727  0.99828930    -0.39000
O1822       O  0.39786634  0.91197427  0.98947240    -0.39000
O1823       O  0.32383281  0.93958574  0.89503045    -0.39700
O1824       O  0.35739520  0.95304542  0.88723333    -0.39700
C1825       C  0.18166031  0.42963876  0.55078235    -0.12000
C1826       C  0.16905737  0.44913958  0.55596221     0.05000
C1827       C  0.15774515  0.45059866  0.57697563    -0.07300
C1828       C  0.15950585  0.43271932  0.59248731    -0.08100
C1829       C  0.17211561  0.41308405  0.58736722    -0.02600
C1830       C  0.18308501  0.41155441  0.56605396     0.04200
N1831       N  0.19618857  0.39213510  0.55973002     0.66700
H1832       H  0.19027419  0.42827789  0.53449594     0.15600
H1833       H  0.15072635  0.43421374  0.60864922     0.15300
N1834       N  0.14523911  0.47042386  0.58324131     0.74400
O1835       O  0.18756588  0.37780850  0.54632747    -0.39000
O1836       O  0.21754006  0.39277074  0.56196131    -0.39000
O1837       O  0.12377224  0.46975899  0.58328258    -0.39700
O1838       O  0.15524337  0.48603351  0.59397440    -0.39700
C1839       C  0.45641316  0.16657634  0.59770190    -0.12000
C1840       C  0.44076407  0.14865701  0.59720954     0.05000
C1841       C  0.44144695  0.13313683  0.57897734    -0.07300
C1842       C  0.45814976  0.13530947  0.56219276    -0.08100
C1843       C  0.47383771  0.15323748  0.56259515    -0.02600
C1844       C  0.47252723  0.16931983  0.58035373     0.04200
N1845       N  0.48751356  0.18835090  0.58122666     0.66700
H1846       H  0.45580146  0.17887154  0.61145120     0.15600
H1847       H  0.45870357  0.12289371  0.54854992     0.15300
N1848       N  0.42577248  0.11468316  0.57755365     0.74400
O1849       O  0.48114780  0.20693874  0.57271044    -0.39000
O1850       O  0.50401118  0.18817089  0.59495097    -0.39000
O1851       O  0.40928568  0.11595889  0.56386707    -0.39700
O1852       O  0.43152141  0.09555416  0.58525521    -0.39700
C1853       C  0.45283947  0.40837802  0.83052198    -0.12000
C1854       C  0.43797582  0.40709885  0.84903572     0.05000
C1855       C  0.43932337  0.42355476  0.86632156    -0.07300
C1856       C  0.45549886  0.44090800  0.86486903    -0.08100
C1857       C  0.47026714  0.44252994  0.84616840    -0.02600
C1858       C  0.46875848  0.42597778  0.82878728     0.04200
N1859       N  0.48364039  0.42629750  0.80960697     0.66700
H1860       H  0.45193238  0.39570497  0.81715617     0.15600
H1861       H  0.45635299  0.45334180  0.87845544     0.15300
N1862       N  0.42491748  0.42243489  0.88583431     0.74400
O1863       O  0.50135085  0.41417440  0.80986877    -0.39000
O1864       O  0.47631796  0.43372043  0.79087750    -0.39000
O1865       O  0.43224562  0.41316202  0.90371398    -0.39700
O1866       O  0.40752360  0.43496194  0.88685515    -0.39700
C1867       C  0.34913214  0.07475119  0.94863821    -0.12000
C1868       C  0.36718524  0.07376854  0.93311824     0.05000
C1869       C  0.38320112  0.05602154  0.93492770    -0.07300
C1870       C  0.38078734  0.03959822  0.95193396    -0.08100
C1871       C  0.36237942  0.04015299  0.96711819    -0.02600
C1872       C  0.34643781  0.05808579  0.96539438     0.04200
N1873       N  0.32778182  0.06005964  0.98084039     0.66700
H1874       H  0.33677629  0.08841751  0.94753680     0.15600
H1875       H  0.39328131  0.02605478  0.95300972     0.15300
N1876       N  0.40250085  0.05488111  0.92021825     0.74400
O1877       O  0.32992574  0.07237485  0.99824571    -0.39000
O1878       O  0.30808281  0.05465871  0.97423549    -0.39000
O1879       O  0.42117484  0.06316676  0.92677823    -0.39700
O1880       O  0.40239678  0.04105649  0.90385294    -0.39700
C1881       C  0.10545593  0.06376915  0.67646455    -0.12000
C1882       C  0.10465893  0.08164789  0.66081680     0.05000
C1883       C  0.08626223  0.08288672  0.64541388    -0.07300
C1884       C  0.06913054  0.06642378  0.64600375    -0.08100
C1885       C  0.06969396  0.04876111  0.66191856    -0.02600
C1886       C  0.08814428  0.04748351  0.67727863     0.04200
N1887       N  0.09010176  0.02928148  0.69316445     0.66700
H1888       H  0.11954746  0.06253251  0.68833499     0.15600
H1889       H  0.05514569  0.06759271  0.63399704     0.15300
N1890       N  0.08522327  0.10006960  0.62834896     0.74400
O1891       O  0.10180660  0.01210342  0.68793019    -0.39000
O1892       O  0.08517622  0.03273946  0.71374035    -0.39000
O1893       O  0.09314575  0.09590431  0.60886485    -0.39700
O1894       O  0.07166442  0.11649157  0.63085473    -0.39700
C1895       C  0.08577167  0.32945706  0.95532196    -0.12000
C1896       C  0.07139086  0.34852473  0.95493718     0.05000
C1897       C  0.07500114  0.36531487  0.93822404    -0.07300
C1898       C  0.09199471  0.36220684  0.92183931    -0.08100
C1899       C  0.10613435  0.34306103  0.92218781    -0.02600
C1900       C  0.10321484  0.32675747  0.93938213     0.04200
N1901       N  0.11710961  0.30689019  0.94032446     0.66700
H1902       H  0.08348329  0.31644110  0.96817504     0.15600
H1903       H  0.09426240  0.37499990  0.90875736     0.15300
N1904       N  0.06115449  0.38517752  0.93699525     0.74400
O1905       O  0.13356220  0.30623490  0.95408964    -0.39000
O1906       O  0.10968246  0.28861251  0.93200939    -0.39000
O1907       O  0.06810356  0.40314625  0.94632692    -0.39700
O1908       O  0.04649091  0.38659308  0.92142789    -0.39700
C1909       C  0.57041029  0.13856532  0.57831149    -0.12000
C1910       C  0.57182529  0.15564928  0.56181808     0.05000
C1911       C  0.58918008  0.17207393  0.56356086    -0.07300
C1912       C  0.60452526  0.17122140  0.58172515    -0.08100
C1913       C  0.60275774  0.15439473  0.59842504    -0.02600
C1914       C  0.58558474  0.13781031  0.59652763     0.04200
N1915       N  0.58397550  0.11943081  0.61224810     0.66700
H1916       H  0.55727782  0.12565674  0.57715366     0.15600
H1917       H  0.61787625  0.18390442  0.58283681     0.15300
N1918       N  0.59236636  0.18883889  0.54639429     0.74400
O1919       O  0.56846631  0.11966159  0.62707367    -0.39000
O1920       O  0.59387552  0.10097733  0.60770668    -0.39000
O1921       O  0.58518200  0.20872731  0.54976894    -0.39700
O1922       O  0.60722025  0.18545758  0.53129802    -0.39700
C1923       C  0.88676575  0.41656358  0.57365352    -0.12000
C1924       C  0.86870488  0.41776198  0.58913537     0.05000
C1925       C  0.85219609  0.43491157  0.58674828    -0.07300
C1926       C  0.85388122  0.45038606  0.56886335    -0.08100
C1927       C  0.87202589  0.44935048  0.55341219    -0.02600
C1928       C  0.88872693  0.43227408  0.55599708     0.04200
N1929       N  0.90728385  0.43007148  0.54044890     0.66700
H1930       H  0.89959604  0.40340169  0.57539582     0.15600
H1931       H  0.84089322  0.46339269  0.56711097     0.15300
N1932       N  0.83305832  0.43619882  0.60164521     0.74400
O1933       O  0.92623880  0.43881078  0.54542712    -0.39000
O1934       O  0.90643898  0.41499875  0.52524764    -0.39000
O1935       O  0.83214537  0.45187980  0.61620781    -0.39700
O1936       O  0.81511361  0.42560825  0.59656073    -0.39700
C1937       C  0.59953466  0.42374899  0.83201580    -0.12000
C1938       C  0.59759597  0.40822856  0.84995346     0.05000
C1939       C  0.57991903  0.41099162  0.86589895    -0.07300
C1940       C  0.56473018  0.42909304  0.86369715    -0.08100
C1941       C  0.56652672  0.44461711  0.84571754    -0.02600
C1942       C  0.58409188  0.44171717  0.82961638     0.04200
N1943       N  0.58739996  0.45752054  0.81157447     0.66700
H1944       H  0.61320587  0.42191828  0.81971315     0.15600
H1945       H  0.55134512  0.43100926  0.87630028     0.15300
N1946       N  0.57789702  0.39642562  0.88516977     0.74400
O1947       O  0.60309719  0.47198297  0.81334514    -0.39000
O1948       O  0.57945947  0.45304985  0.79216856    -0.39000
O1949       O  0.58660785  0.40248812  0.90380119    -0.39700
O1950       O  0.56290047  0.38112650  0.88512862    -0.39700
C1951       C  0.95181125  0.36656139  0.92121445    -0.12000
C1952       C  0.93282885  0.35258609  0.92473714     0.05000
C1953       C  0.93220438  0.33874482  0.94430946    -0.07300
C1954       C  0.95073397  0.33856933  0.95928080    -0.08100
C1955       C  0.96967818  0.35252523  0.95563596    -0.02600
C1956       C  0.96998492  0.36685532  0.93650976     0.04200
N1957       N  0.98925939  0.38060632  0.93139385     0.66700
H1958       H  0.95261671  0.37751142  0.90639776     0.15600
H1959       H  0.95014615  0.32763124  0.97412508     0.15300
N1960       N  0.91317138  0.32452582  0.94916800     0.74400
O1961       O  0.00273515  0.37401177  0.91607868    -0.39000
O1962       O  0.98887475  0.40133694  0.93670453    -0.39000
O1963       O  0.91422513  0.30372974  0.94423240    -0.39700
O1964       O  0.89861717  0.33114850  0.96348092    -0.39700
C1965       C  0.95141802  0.05094609  0.68153202    -0.12000
C1966       C  0.96945380  0.05351145  0.66618397     0.05000
C1967       C  0.96961218  0.07229204  0.65138402    -0.07300
C1968       C  0.95214955  0.08834044  0.65256842    -0.08100
C1969       C  0.93402181  0.08584904  0.66789445    -0.02600
C1970       C  0.93355111  0.06666365  0.68225808     0.04200
N1971       N  0.91540454  0.06302086  0.69797251     0.66700
H1972       H  0.95090631  0.03630782  0.69271372     0.15600
H1973       H  0.95269603  0.10278643  0.64116084     0.15300
N1974       N  0.98767264  0.07566909  0.63548009     0.74400
O1975       O  0.89967920  0.04942182  0.69273789    -0.39000
O1976       O  0.91829229  0.06818143  0.71857288    -0.39000
O1977       O  0.98433353  0.07135482  0.61474731    -0.39700
O1978       O  0.00453767  0.08764795  0.64112163    -0.39700
C1979       C  0.66111323  0.05728677  0.92948676    -0.12000
C1980       C  0.67672984  0.07520683  0.93081714     0.05000
C1981       C  0.69237898  0.07564552  0.94900366    -0.07300
C1982       C  0.69196569  0.05842320  0.96542573    -0.08100
C1983       C  0.67594981  0.04080170  0.96434980    -0.02600
C1984       C  0.66050523  0.04027185  0.94601078     0.04200
N1985       N  0.64509408  0.02183819  0.94299294     0.66700
H1986       H  0.64900383  0.05653363  0.91556237     0.15600
H1987       H  0.70420551  0.05892984  0.97925696     0.15300
N1988       N  0.70930186  0.09293404  0.95064479     0.74400
O1989       O  0.62498334  0.02370180  0.95028773    -0.39000
O1990       O  0.64942083  0.00728812  0.92787483    -0.39000
O1991       O  0.70708005  0.10834297  0.96535889    -0.39700
O1992       O  0.72851133  0.08974256  0.94159564    -0.39700
loop_ 
_geom_bond_atom_site_label_1 
_geom_bond_atom_site_label_2 
_geom_bond_distance 
_geom_bond_site_symmetry_2 
_ccdc_geom_bond_type 
N1            N2   1.324       .  A
N1            C5   1.346       .  A
N1           Cu9   2.083       .  S
N2            C3   1.345       .  A
N2           Cu8   2.075       .  S
C3            C4   1.381       .  A
C3            H6   1.081       .  S
C4            C5   1.383       .  A
C4           C86   1.469       .  S
C5            H7   1.081       .  S
Cu8          N11   2.074       .  S
Cu9          N19   2.082       .  S
Cu10         N12   2.063       .  S
Cu10         N18   2.065       .  S
N11          N12   1.322       .  A
N11          C15   1.345       .  A
N12          C13   1.343       .  A
C13          C14   1.379       .  A
C13          H16   1.081       .  S
C14          C15   1.383       .  A
C14         C134   1.464       .  S
C15          H17   1.082       .  S
N18          N19   1.321       .  A
N18          C22   1.342       .  A
N19          C20   1.348       .  A
C20          C21   1.388       .  A
C20          H23   1.081       .  S
C21          C22   1.384       .  A
C21        C1980   1.482       .  S
C22          H24   1.082       .  S
N25          N26   1.322       .  A
N25          C29   1.345       .  A
N25         Cu33   2.072       .  S
N26          C27   1.345       .  A
N26         Cu32   2.072       .  S
C27          C28   1.382       .  A
C27          H30   1.081       .  S
C28          C29   1.382       .  A
C28         C100   1.467       .  S
C29          H31   1.081       .  S
Cu32         N35   2.072       .  S
Cu33         N43   2.073       .  S
Cu34         N36   2.071       .  S
Cu34         N42   2.071       .  S
N35          N36   1.323       .  A
N35          C39   1.343       .  A
N36          C37   1.346       .  A
C37          C38   1.382       .  A
C37          H40   1.081       .  S
C38          C39   1.381       .  A
C38         C124   1.467       .  S
C39          H41   1.081       .  S
N42          N43   1.322       .  A
N42          C46   1.346       .  A
N43          C44   1.342       .  A
C44          C45   1.385       .  A
C44          H47   1.083       .  S
C45          C46   1.385       .  A
C45        C1969   1.480       .  S
C46          H48   1.080       .  S
N49          N50   1.323       .  A
N49          C53   1.346       .  A
N49         Cu57   2.075       .  S
N50          C51   1.344       .  A
N50         Cu56   2.075       .  S
C51          C52   1.381       .  A
C51          H54   1.081       .  S
C52          C53   1.382       .  A
C52          C76   1.468       .  S
C53          H55   1.081       .  S
Cu56         N59   2.074       .  S
Cu57         N67   2.074       .  S
Cu58         N60   2.065       .  S
Cu58         N66   2.066       .  S
N59          N60   1.321       .  A
N59          C63   1.346       .  A
N60          C61   1.344       .  A
C61          C62   1.380       .  A
C61          H64   1.081       .  S
C62          C63   1.383       .  A
C62         C110   1.465       .  S
C63          H65   1.081       .  S
N66          N67   1.321       .  A
N66          C70   1.341       .  A
N67          C68   1.346       .  A
C68          C69   1.387       .  A
C68          H71   1.082       .  S
C69          C70   1.385       .  A
C69        C1952   1.482       .  S
C70          H72   1.082       .  S
N73          N74   1.322       .  A
N73          C77   1.344       .  A
N73         Cu81   2.069       .  S
N74          C75   1.346       .  A
N74         Cu80   2.077       .  S
C75          C76   1.383       .  A
C75          H78   1.081       .  S
C76          C77   1.381       .  A
C77          H79   1.081       .  S
Cu80         N83   2.077       .  S
Cu81         N91   2.068       .  S
Cu82         N84   2.074       .  S
Cu82         N90   2.074       .  S
N83          N84   1.323       .  A
N83          C87   1.346       .  A
N84          C85   1.345       .  A
C85          C86   1.382       .  A
C85          H88   1.081       .  S
C86          C87   1.382       .  A
C87          H89   1.081       .  S
N90          N91   1.321       .  A
N90          C94   1.346       .  A
N91          C92   1.343       .  A
C92          C93   1.382       .  A
C92          H95   1.082       .  S
C93          C94   1.385       .  A
C93        C1938   1.477       .  S
C94          H96   1.081       .  S
N97          N98   1.322       .  A
N97         C101   1.345       .  A
N97        Cu105   2.068       .  S
N98          C99   1.346       .  A
N98        Cu104   2.077       .  S
C99         C100   1.383       .  A
C99         H102   1.081       .  S
C100        C101   1.381       .  A
C101        H103   1.081       .  S
Cu104       N107   2.078       .  S
Cu105       N115   2.068       .  S
Cu106       N108   2.069       .  S
Cu106       N114   2.069       .  S
N107        N108   1.323       .  A
N107        C111   1.345       .  A
N108        C109   1.345       .  A
C109        C110   1.380       .  A
C109        H112   1.081       .  S
C110        C111   1.382       .  A
C111        H113   1.081       .  S
N114        N115   1.322       .  A
N114        C118   1.346       .  A
N115        C116   1.342       .  A
C116        C117   1.381       .  A
C116        H119   1.082       .  S
C117        C118   1.383       .  A
C117       C1924   1.470       .  S
C118        H120   1.082       .  S
N121        N122   1.323       .  A
N121        C125   1.343       .  A
N121       Cu129   2.068       .  S
N122        C123   1.346       .  A
N122       Cu128   2.078       .  S
C123        C124   1.383       .  A
C123        H126   1.081       .  S
C124        C125   1.380       .  A
C125        H127   1.081       .  S
Cu128       N131   2.078       .  S
Cu129       N139   2.067       .  S
Cu130       N132   2.057       .  S
Cu130       N138   2.056       .  S
N131        N132   1.322       .  A
N131        C135   1.345       .  A
N132        C133   1.343       .  A
C133        C134   1.379       .  A
C133        H136   1.081       .  S
C134        C135   1.383       .  A
C135        H137   1.081       .  S
N138        N139   1.320       .  A
N138        C142   1.342       .  A
N139        C140   1.344       .  A
C140        C141   1.384       .  A
C140        H143   1.082       .  S
C141        C142   1.381       .  A
C141       C1913   1.473       .  S
C142        H144   1.081       .  S
N145        N146   1.323       .  A
N145        C149   1.346       .  A
N145       Cu153   2.075       .  S
N146        C147   1.344       .  A
N146       Cu152   2.074       .  S
C147        C148   1.381       .  A
C147        H150   1.081       .  S
C148        C149   1.382       .  A
C148        C220   1.467       .  S
C149        H151   1.081       .  S
Cu152       N155   2.073       .  S
Cu153       N163   2.075       .  S
Cu154       N156   2.075       .  S
Cu154       N162   2.075       .  S
N155        N156   1.322       .  A
N155        C159   1.345       .  A
N156        C157   1.346       .  A
C157        C158   1.383       .  A
C157        H160   1.081       .  S
C158        C159   1.382       .  A
C158        C278   1.469       .  S
C159        H161   1.081       .  S
N162        N163   1.322       .  A
N162        C166   1.343       .  A
N163        C164   1.347       .  A
C164        C165   1.384       .  A
C164        H167   1.082       .  S
C165        C166   1.382       .  A
C165       C1899   1.474       .  S
C166        H168   1.082       .  S
N169        N170   1.321       .  A
N169        C173   1.342       .  A
N169       Cu177   2.057       .  S
N170        C171   1.346       .  A
N170       Cu176   2.075       .  S
C171        C172   1.384       .  A
C171        H174   1.081       .  S
C172        C173   1.378       .  A
C172        C268   1.464       .  S
C173        H175   1.081       .  S
Cu176       N179   2.076       .  S
Cu177       N187   2.058       .  S
Cu178       N180   2.084       .  S
Cu178       N186   2.084       .  S
N179        N180   1.324       .  A
N179        C183   1.345       .  A
N180        C181   1.347       .  A
C181        C182   1.383       .  A
C181        H184   1.081       .  S
C182        C183   1.381       .  A
C182        C244   1.469       .  S
C183        H185   1.081       .  S
N186        N187   1.321       .  A
N186        C190   1.346       .  A
N187        C188   1.343       .  A
C188        C189   1.381       .  A
C188        H191   1.081       .  S
C189        C190   1.387       .  A
C189       C1882   1.479       .  S
C190        H192   1.082       .  S
N193        N194   1.323       .  A
N193        C197   1.347       .  A
N193       Cu201   2.082       .  S
N194        C195   1.344       .  A
N194       Cu200   2.070       .  S
C195        C196   1.381       .  A
C195        H198   1.081       .  S
C196        C197   1.385       .  A
C196        C230   1.470       .  S
C197        H199   1.081       .  S
Cu200       N203   2.070       .  S
Cu201       N211   2.082       .  S
Cu202       N204   2.077       .  S
Cu202       N210   2.077       .  S
N203        N204   1.322       .  A
N203        C207   1.346       .  A
N204        C205   1.346       .  A
C205        C206   1.384       .  A
C205        H208   1.081       .  S
C206        C207   1.382       .  A
C206        C254   1.471       .  S
C207        H209   1.081       .  S
N210        N211   1.323       .  A
N210        C214   1.346       .  A
N211        C212   1.346       .  A
C212        C213   1.385       .  A
C212        H215   1.082       .  S
C213        C214   1.384       .  A
C213       C1868   1.480       .  S
C214        H216   1.081       .  S
N217        N218   1.322       .  A
N217        C221   1.344       .  A
N217       Cu225   2.066       .  S
N218        C219   1.346       .  A
N218       Cu224   2.074       .  S
C219        C220   1.383       .  A
C219        H222   1.081       .  S
C220        C221   1.381       .  A
C221        H223   1.081       .  S
Cu224       N227   2.073       .  S
Cu225       N235   2.067       .  S
Cu226       N228   2.081       .  S
Cu226       N234   2.080       .  S
N227        N228   1.323       .  A
N227        C231   1.346       .  A
N228        C229   1.345       .  A
C229        C230   1.384       .  A
C229        H232   1.081       .  S
C230        C231   1.382       .  A
C231        H233   1.081       .  S
N234        N235   1.322       .  A
N234        C238   1.347       .  A
N235        C236   1.345       .  A
C236        C237   1.381       .  A
C236        H239   1.082       .  S
C237        C238   1.384       .  A
C237       C1854   1.474       .  S
C238        H240   1.082       .  S
N241        N242   1.321       .  A
N241        C245   1.344       .  A
N241       Cu249   2.067       .  S
N242        C243   1.346       .  A
N242       Cu248   2.074       .  S
C243        C244   1.383       .  A
C243        H246   1.081       .  S
C244        C245   1.382       .  A
C245        H247   1.081       .  S
Cu248       N251   2.074       .  S
Cu249       N259   2.068       .  S
Cu250       N252   2.089       .  S
Cu250       N258   2.089       .  S
N251        N252   1.324       .  A
N251        C255   1.344       .  A
N252        C253   1.348       .  A
C253        C254   1.385       .  A
C253        H256   1.081       .  S
C254        C255   1.380       .  A
C255        H257   1.081       .  S
N258        N259   1.323       .  A
N258        C262   1.347       .  A
N259        C260   1.344       .  A
C260        C261   1.381       .  A
C260        H263   1.082       .  S
C261        C262   1.386       .  A
C261       C1840   1.478       .  S
C262        H264   1.082       .  S
N265        N266   1.323       .  A
N265        C269   1.345       .  A
N265       Cu273   2.067       .  S
N266        C267   1.343       .  A
N266       Cu272   2.073       .  S
C267        C268   1.381       .  A
C267        H270   1.081       .  S
C268        C269   1.380       .  A
C269        H271   1.081       .  S
Cu272       N275   2.073       .  S
Cu273       N283   2.067       .  S
Cu274       N276   2.075       .  S
Cu274       N282   2.074       .  S
N275        N276   1.322       .  A
N275        C279   1.346       .  A
N276        C277   1.345       .  A
C277        C278   1.383       .  A
C277        H280   1.081       .  S
C278        C279   1.383       .  A
C279        H281   1.081       .  S
N282        N283   1.321       .  A
N282        C286   1.342       .  A
N283        C284   1.346       .  A
C284        C285   1.386       .  A
C284        H287   1.081       .  S
C285        C286   1.386       .  A
C285       C1829   1.482       .  S
C286        H288   1.082       .  S
N289        N290   1.322       .  A
N289        C293   1.349       .  A
N289       Cu297   2.092       .  S
N290        C291   1.346       .  A
N290       Cu296   2.071       .  S
C291        C292   1.382       .  A
C291        H294   1.081       .  S
C292        C293   1.387       .  A
C292        C374   1.475       .  S
C293        H295   1.081       .  S
Cu296       N299   2.071       .  S
Cu297       N307   2.093       .  S
Cu298       N300   2.087       .  S
Cu298       N306   2.087       .  S
N299        N300   1.323       .  A
N299        C303   1.344       .  A
N300        C301   1.348       .  A
C301        C302   1.385       .  A
C301        H304   1.081       .  S
C302        C303   1.380       .  A
C302        C422   1.471       .  S
C303        H305   1.081       .  S
N306        N307   1.322       .  A
N306        C310   1.350       .  A
N307        C308   1.345       .  A
C308        C309   1.390       .  A
C308        H311   1.081       .  S
C309        C310   1.391       .  A
C309       C1812   1.496       .  S
C310        H312   1.081       .  S
N313        N314   1.322       .  A
N313        C317   1.346       .  A
N313       Cu321   2.073       .  S
N314        C315   1.345       .  A
N314       Cu320   2.070       .  S
C315        C316   1.382       .  A
C315        H318   1.082       .  S
C316        C317   1.383       .  A
C316        C398   1.468       .  S
C317        H319   1.081       .  S
Cu320       N323   2.070       .  S
Cu321       N331   2.073       .  S
Cu322       N324   2.067       .  S
Cu322       N330   2.067       .  S
N323        N324   1.322       .  A
N323        C327   1.343       .  A
N324        C325   1.345       .  A
C325        C326   1.381       .  A
C325        H328   1.081       .  S
C326        C327   1.381       .  A
C326        C412   1.465       .  S
C327        H329   1.082       .  S
N330        N331   1.322       .  A
N330        C334   1.345       .  A
N331        C332   1.342       .  A
C332        C333   1.384       .  A
C332        H335   1.083       .  S
C333        C334   1.384       .  A
C333       C1798   1.477       .  S
C334        H336   1.081       .  S
N337        N338   1.323       .  A
N337        C341   1.348       .  A
N337       Cu345   2.084       .  S
N338        C339   1.343       .  A
N338       Cu344   2.068       .  S
C339        C340   1.380       .  A
C339        H342   1.081       .  S
C340        C341   1.385       .  A
C340        C388   1.470       .  S
C341        H343   1.081       .  S
Cu344       N347   2.067       .  S
Cu345       N355   2.085       .  S
Cu346       N348   2.078       .  S
Cu346       N354   2.078       .  S
N347        N348   1.322       .  A
N347        C351   1.344       .  A
N348        C349   1.346       .  A
C349        C350   1.384       .  A
C349        H352   1.081       .  S
C350        C351   1.381       .  A
C350        C364   1.469       .  S
C351        H353   1.081       .  S
N354        N355   1.323       .  A
N354        C358   1.344       .  A
N355        C356   1.348       .  A
C356        C357   1.387       .  A
C356        H359   1.081       .  S
C357        C358   1.384       .  A
C357       C1784   1.482       .  S
C358        H360   1.082       .  S
N361        N362   1.324       .  A
N361        C365   1.346       .  A
N361       Cu369   2.081       .  S
N362        C363   1.345       .  A
N362       Cu368   2.074       .  S
C363        C364   1.381       .  A
C363        H366   1.081       .  S
C364        C365   1.383       .  A
C365        H367   1.081       .  S
Cu368       N371   2.074       .  S
Cu369       N379   2.081       .  S
Cu370       N372   2.087       .  S
Cu370       N378   2.087       .  S
N371        N372   1.322       .  A
N371        C375   1.347       .  A
N372        C373   1.347       .  A
C373        C374   1.386       .  A
C373        H376   1.081       .  S
C374        C375   1.383       .  A
C375        H377   1.081       .  S
N378        N379   1.322       .  A
N378        C382   1.344       .  A
N379        C380   1.349       .  A
C380        C381   1.387       .  A
C380        H383   1.081       .  S
C381        C382   1.387       .  A
C381       C1770   1.486       .  S
C382        H384   1.082       .  S
N385        N386   1.323       .  A
N385        C389   1.345       .  A
N385       Cu393   2.080       .  S
N386        C387   1.347       .  A
N386       Cu392   2.074       .  S
C387        C388   1.382       .  A
C387        H390   1.081       .  S
C388        C389   1.383       .  A
C389        H391   1.081       .  S
Cu392       N395   2.073       .  S
Cu393       N403   2.079       .  S
Cu394       N396   2.072       .  S
Cu394       N402   2.072       .  S
N395        N396   1.322       .  A
N395        C399   1.345       .  A
N396        C397   1.346       .  A
C397        C398   1.383       .  A
C397        H400   1.081       .  S
C398        C399   1.382       .  A
C399        H401   1.082       .  S
N402        N403   1.322       .  A
N402        C406   1.344       .  A
N403        C404   1.347       .  A
C404        C405   1.384       .  A
C404        H407   1.081       .  S
C405        C406   1.381       .  A
C405       C1759   1.473       .  S
C406        H408   1.082       .  S
N409        N410   1.323       .  A
N409        C413   1.342       .  A
N409       Cu417   2.062       .  S
N410        C411   1.347       .  A
N410       Cu416   2.081       .  S
C411        C412   1.383       .  A
C411        H414   1.082       .  S
C412        C413   1.379       .  A
C413        H415   1.081       .  S
Cu416       N419   2.081       .  S
Cu417       N427   2.062       .  S
Cu418       N420   2.078       .  S
Cu418       N426   2.078       .  S
N419        N420   1.323       .  A
N419        C423   1.348       .  A
N420        C421   1.345       .  A
C421        C422   1.382       .  A
C421        H424   1.081       .  S
C422        C423   1.384       .  A
C423        H425   1.081       .  S
N426        N427   1.321       .  A
N426        C430   1.345       .  A
N427        C428   1.344       .  A
C428        C429   1.383       .  A
C428        H431   1.082       .  S
C429        C430   1.386       .  A
C429       C1742   1.479       .  S
C430        H432   1.081       .  S
N433        N434   1.321       .  A
N433        C437   1.343       .  A
N433       Cu441   2.060       .  S
N434        C435   1.346       .  A
N434       Cu440   2.075       .  S
C435        C436   1.384       .  A
C435        H438   1.081       .  S
C436        C437   1.381       .  A
C436        C518   1.466       .  S
C437        H439   1.081       .  S
Cu440       N443   2.077       .  S
Cu441       N451   2.059       .  S
Cu442       N444   2.090       .  S
Cu442       N450   2.089       .  S
N443        N444   1.324       .  A
N443        C447   1.345       .  A
N444        C445   1.348       .  A
C445        C446   1.386       .  A
C445        H448   1.081       .  S
C446        C447   1.381       .  A
C446        C556   1.474       .  S
C447        H449   1.081       .  S
N450        N451   1.322       .  A
N450        C454   1.348       .  A
N451        C452   1.342       .  A
C452        C453   1.380       .  A
C452        H455   1.080       .  S
C453        C454   1.388       .  A
C453       C1728   1.479       .  S
C454        H456   1.082       .  S
N457        N458   1.322       .  A
N457        C461   1.343       .  A
N457       Cu465   2.062       .  S
N458        C459   1.346       .  A
N458       Cu464   2.076       .  S
C459        C460   1.384       .  A
C459        H462   1.081       .  S
C460        C461   1.380       .  A
C460        C542   1.466       .  S
C461        H463   1.081       .  S
Cu464       N467   2.076       .  S
Cu465       N475   2.060       .  S
Cu466       N468   2.086       .  S
Cu466       N474   2.085       .  S
N467        N468   1.323       .  A
N467        C471   1.345       .  A
N468        C469   1.348       .  A
C469        C470   1.386       .  A
C469        H472   1.081       .  S
C470        C471   1.382       .  A
C470        C566   1.475       .  S
C471        H473   1.082       .  S
N474        N475   1.322       .  A
N474        C478   1.346       .  A
N475        C476   1.344       .  A
C476        C477   1.379       .  A
C476        H479   1.082       .  S
C477        C478   1.385       .  A
C477       C1714   1.470       .  S
C478        H480   1.082       .  S
N481        N482   1.324       .  A
N481        C485   1.346       .  A
N481       Cu489   2.081       .  S
N482        C483   1.346       .  A
N482       Cu488   2.079       .  S
C483        C484   1.383       .  A
C483        H486   1.081       .  S
C484        C485   1.383       .  A
C484        C508   1.472       .  S
C485        H487   1.081       .  S
Cu488       N491   2.079       .  S
Cu489       N499   2.080       .  S
Cu490       N492   2.075       .  S
Cu490       N498   2.075       .  S
N491        N492   1.323       .  A
N491        C495   1.347       .  A
N492        C493   1.345       .  A
C493        C494   1.383       .  A
C493        H496   1.081       .  S
C494        C495   1.384       .  A
C494        C532   1.471       .  S
C495        H497   1.081       .  S
N498        N499   1.322       .  A
N498        C502   1.345       .  A
N499        C500   1.347       .  A
C500        C501   1.385       .  A
C500        H503   1.082       .  S
C501        C502   1.385       .  A
C501       C1700   1.482       .  S
C502        H504   1.081       .  S
N505        N506   1.323       .  A
N505        C509   1.347       .  A
N505       Cu513   2.080       .  S
N506        C507   1.345       .  A
N506       Cu512   2.073       .  S
C507        C508   1.382       .  A
C507        H510   1.081       .  S
C508        C509   1.384       .  A
C509        H511   1.081       .  S
Cu512       N515   2.072       .  S
Cu513       N523   2.080       .  S
Cu514       N516   2.073       .  S
Cu514       N522   2.073       .  S
N515        N516   1.322       .  A
N515        C519   1.344       .  A
N516        C517   1.346       .  A
C517        C518   1.383       .  A
C517        H520   1.082       .  S
C518        C519   1.381       .  A
C519        H521   1.081       .  S
N522        N523   1.323       .  A
N522        C526   1.345       .  A
N523        C524   1.346       .  A
C524        C525   1.383       .  A
C524        H527   1.082       .  S
C525        C526   1.383       .  A
C525       C1686   1.477       .  S
C526        H528   1.082       .  S
N529        N530   1.323       .  A
N529        C533   1.347       .  A
N529       Cu537   2.082       .  S
N530        C531   1.345       .  A
N530       Cu536   2.072       .  S
C531        C532   1.382       .  A
C531        H534   1.081       .  S
C532        C533   1.384       .  A
C533        H535   1.081       .  S
Cu536       N539   2.072       .  S
Cu537       N547   2.083       .  S
Cu538       N540   2.068       .  S
Cu538       N546   2.068       .  S
N539        N540   1.322       .  A
N539        C543   1.343       .  A
N540        C541   1.346       .  A
C541        C542   1.382       .  A
C541        H544   1.081       .  S
C542        C543   1.382       .  A
C543        H545   1.081       .  S
N546        N547   1.323       .  A
N546        C550   1.345       .  A
N547        C548   1.346       .  A
C548        C549   1.384       .  A
C548        H551   1.082       .  S
C549        C550   1.382       .  A
C549       C1675   1.477       .  S
C550        H552   1.082       .  S
N553        N554   1.323       .  A
N553        C557   1.347       .  A
N553       Cu561   2.084       .  S
N554        C555   1.347       .  A
N554       Cu560   2.079       .  S
C555        C556   1.383       .  A
C555        H558   1.081       .  S
C556        C557   1.385       .  A
C557        H559   1.081       .  S
Cu560       N563   2.079       .  S
Cu561       N571   2.084       .  S
Cu562       N564   2.088       .  S
Cu562       N570   2.088       .  S
N563        N564   1.323       .  A
N563        C567   1.347       .  A
N564        C565   1.347       .  A
C565        C566   1.385       .  A
C565        H568   1.081       .  S
C566        C567   1.383       .  A
C567        H569   1.082       .  S
N570        N571   1.323       .  A
N570        C574   1.343       .  A
N571        C572   1.350       .  A
C572        C573   1.389       .  A
C572        H575   1.066       .  S
C573        C574   1.381       .  A
C573       C1658   1.485       .  S
C574        H576   1.111       .  S
N577        N578   1.323       .  A
N577        C581   1.346       .  A
N577       Cu585   2.077       .  S
N578        C579   1.344       .  A
N578       Cu584   2.072       .  S
C579        C580   1.381       .  A
C579        H582   1.081       .  S
C580        C581   1.382       .  A
C580        C652   1.467       .  S
C581        H583   1.081       .  S
Cu584       N587   2.072       .  S
Cu585       N595   2.077       .  S
Cu586       N588   2.075       .  S
Cu586       N594   2.075       .  S
N587        N588   1.321       .  A
N587        C591   1.346       .  A
N588        C589   1.346       .  A
C589        C590   1.383       .  A
C589        H592   1.081       .  S
C590        C591   1.383       .  A
C590        C700   1.469       .  S
C591        H593   1.081       .  S
N594        N595   1.322       .  A
N594        C598   1.343       .  A
N595        C596   1.348       .  A
C596        C597   1.387       .  A
C596        H599   1.082       .  S
C597        C598   1.385       .  A
C597       C1644   1.482       .  S
C598        H600   1.081       .  S
N601        N602   1.322       .  A
N601        C605   1.348       .  A
N601       Cu609   2.080       .  S
N602        C603   1.344       .  A
N602       Cu608   2.073       .  S
C603        C604   1.382       .  A
C603        H606   1.081       .  S
C604        C605   1.384       .  A
C604        C710   1.470       .  S
C605        H607   1.081       .  S
Cu608       N611   2.072       .  S
Cu609       N619   2.081       .  S
Cu610       N612   2.084       .  S
Cu610       N618   2.084       .  S
N611        N612   1.323       .  A
N611        C615   1.345       .  A
N612        C613   1.347       .  A
C613        C614   1.385       .  A
C613        H616   1.081       .  S
C614        C615   1.382       .  A
C614        C686   1.472       .  S
C615        H617   1.082       .  S
N618        N619   1.322       .  A
N618        C622   1.348       .  A
N619        C620   1.345       .  A
C620        C621   1.386       .  A
C620        H623   1.081       .  S
C621        C622   1.388       .  A
C621       C1630   1.487       .  S
C622        H624   1.080       .  S
N625        N626   1.323       .  A
N625        C629   1.349       .  A
N625       Cu633   2.091       .  S
N626        C627   1.346       .  A
N626       Cu632   2.075       .  S
C627        C628   1.382       .  A
C627        H630   1.082       .  S
C628        C629   1.387       .  A
C628        C662   1.476       .  S
C629        H631   1.081       .  S
Cu632       N635   2.075       .  S
Cu633       N643   2.090       .  S
Cu634       N636   2.073       .  S
Cu634       N642   2.073       .  S
N635        N636   1.322       .  A
N635        C639   1.345       .  A
N636        C637   1.347       .  A
C637        C638   1.384       .  A
C637        H640   1.081       .  S
C638        C639   1.382       .  A
C638        C676   1.470       .  S
C639        H641   1.081       .  S
N642        N643   1.324       .  A
N642        C646   1.345       .  A
N643        C644   1.348       .  A
C644        C645   1.383       .  A
C644        H647   1.082       .  S
C645        C646   1.381       .  A
C645       C1616   1.474       .  S
C646        H648   1.081       .  S
N649        N650   1.322       .  A
N649        C653   1.344       .  A
N649       Cu657   2.070       .  S
N650        C651   1.345       .  A
N650       Cu656   2.073       .  S
C651        C652   1.382       .  A
C651        H654   1.081       .  S
C652        C653   1.382       .  A
C653        H655   1.081       .  S
Cu656       N659   2.074       .  S
Cu657       N667   2.071       .  S
Cu658       N660   2.098       .  S
Cu658       N666   2.098       .  S
N659        N660   1.324       .  A
N659        C663   1.346       .  A
N660        C661   1.349       .  A
C661        C662   1.388       .  A
C661        H664   1.081       .  S
C662        C663   1.382       .  A
C663        H665   1.082       .  S
N666        N667   1.322       .  A
N666        C670   1.348       .  A
N667        C668   1.346       .  A
C668        C669   1.385       .  A
C668        H671   1.082       .  S
C669        C670   1.389       .  A
C669       C1605   1.488       .  S
C670        H672   1.082       .  S
N673        N674   1.322       .  A
N673        C677   1.345       .  A
N673       Cu681   2.077       .  S
N674        C675   1.346       .  A
N674       Cu680   2.075       .  S
C675        C676   1.383       .  A
C675        H678   1.081       .  S
C676        C677   1.383       .  A
C677        H679   1.080       .  S
Cu680       N683   2.075       .  S
Cu681       N691   2.078       .  S
Cu682       N684   2.087       .  S
Cu682       N690   2.086       .  S
N683        N684   1.324       .  A
N683        C687   1.346       .  A
N684        C685   1.347       .  A
C685        C686   1.385       .  A
C685        H688   1.081       .  S
C686        C687   1.382       .  A
C687        H689   1.082       .  S
N690        N691   1.321       .  A
N690        C694   1.347       .  A
N691        C692   1.346       .  A
C692        C693   1.388       .  A
C692        H695   1.080       .  S
C693        C694   1.388       .  A
C693       C1588   1.491       .  S
C694        H696   1.082       .  S
N697        N698   1.324       .  A
N697        C701   1.346       .  A
N697       Cu705   2.081       .  S
N698        C699   1.346       .  A
N698       Cu704   2.079       .  S
C699        C700   1.382       .  A
C699        H702   1.081       .  S
C700        C701   1.382       .  A
C701        H703   1.081       .  S
Cu704       N707   2.079       .  S
Cu705       N715   2.080       .  S
Cu706       N708   2.073       .  S
Cu706       N714   2.074       .  S
N707        N708   1.322       .  A
N707        C711   1.347       .  A
N708        C709   1.345       .  A
C709        C710   1.382       .  A
C709        H712   1.081       .  S
C710        C711   1.384       .  A
C711        H713   1.082       .  S
N714        N715   1.322       .  A
N714        C718   1.343       .  A
N715        C716   1.348       .  A
C716        C717   1.387       .  A
C716        H719   1.081       .  S
C717        C718   1.385       .  A
C717       C1577   1.482       .  S
C718        H720   1.082       .  S
N721        N722   1.322       .  A
N721        C725   1.347       .  A
N721       Cu729   2.081       .  S
N722        C723   1.345       .  A
N722       Cu728   2.073       .  S
C723        C724   1.382       .  A
C723        H726   1.081       .  S
C724        C725   1.385       .  A
C724        C806   1.472       .  S
C725        H727   1.081       .  S
Cu728       N731   2.073       .  S
Cu729       N739   2.080       .  S
Cu730       N732   2.080       .  S
Cu730       N738   2.080       .  S
N731        N732   1.322       .  A
N731        C735   1.346       .  A
N732        C733   1.346       .  A
C733        C734   1.385       .  A
C733        H736   1.081       .  S
C734        C735   1.382       .  A
C734        C844   1.472       .  S
C735        H737   1.082       .  S
N738        N739   1.322       .  A
N738        C742   1.348       .  A
N739        C740   1.344       .  A
C740        C741   1.385       .  A
C740        H743   1.082       .  S
C741        C742   1.387       .  A
C741       C1560   1.484       .  S
C742        H744   1.081       .  S
N745        N746   1.322       .  A
N745        C749   1.347       .  A
N745       Cu753   2.079       .  S
N746        C747   1.345       .  A
N746       Cu752   2.071       .  S
C747        C748   1.382       .  A
C747        H750   1.081       .  S
C748        C749   1.385       .  A
C748        C830   1.472       .  S
C749        H751   1.081       .  S
Cu752       N755   2.071       .  S
Cu753       N763   2.079       .  S
Cu754       N756   2.079       .  S
Cu754       N762   2.079       .  S
N755        N756   1.323       .  A
N755        C759   1.345       .  A
N756        C757   1.346       .  A
C757        C758   1.384       .  A
C757        H760   1.081       .  S
C758        C759   1.381       .  A
C758        C854   1.470       .  S
C759        H761   1.081       .  S
N762        N763   1.322       .  A
N762        C766   1.348       .  A
N763        C764   1.343       .  A
C764        C765   1.385       .  A
C764        H767   1.082       .  S
C765        C766   1.388       .  A
C765       C1546   1.485       .  S
C766        H768   1.081       .  S
N769        N770   1.324       .  A
N769        C773   1.344       .  A
N769       Cu777   2.085       .  S
N770        C771   1.350       .  A
N770       Cu776   2.084       .  S
C771        C772   1.385       .  A
C771        H774   1.082       .  S
C772        C773   1.384       .  A
C772        C796   1.476       .  S
C773        H775   1.081       .  S
Cu776       N779   2.084       .  S
Cu777       N787   2.084       .  S
Cu778       N780   2.071       .  S
Cu778       N786   2.069       .  S
N779        N780   1.324       .  A
N779        C783   1.349       .  A
N780        C781   1.342       .  A
C781        C782   1.380       .  A
C781        H784   1.081       .  S
C782        C783   1.385       .  A
C782        C820   1.469       .  S
C783        H785   1.081       .  S
N786        N787   1.320       .  A
N786        C790   1.347       .  A
N787        C788   1.345       .  A
C788        C789   1.388       .  A
C788        H791   1.081       .  S
C789        C790   1.385       .  A
C789       C1535   1.481       .  S
C790        H792   1.081       .  S
N793        N794   1.323       .  A
N793        C797   1.352       .  A
N793       Cu801   2.098       .  S
N794        C795   1.342       .  A
N794       Cu800   2.065       .  S
C795        C796   1.380       .  A
C795        H798   1.081       .  S
C796        C797   1.389       .  A
C797        H799   1.081       .  S
Cu800       N803   2.064       .  S
Cu801       N811   2.099       .  S
Cu802       N804   2.084       .  S
Cu802       N810   2.086       .  S
N803        N804   1.321       .  A
N803        C807   1.345       .  A
N804        C805   1.347       .  A
C805        C806   1.386       .  A
C805        H808   1.081       .  S
C806        C807   1.381       .  A
C807        H809   1.081       .  S
N810        N811   1.325       .  A
N810        C814   1.348       .  A
N811        C812   1.348       .  A
C812        C813   1.386       .  A
C812        H815   1.082       .  S
C813        C814   1.385       .  A
C813       C1518   1.485       .  S
C814        H816   1.082       .  S
N817        N818   1.323       .  A
N817        C821   1.349       .  A
N817       Cu825   2.084       .  S
N818        C819   1.342       .  A
N818       Cu824   2.065       .  S
C819        C820   1.379       .  A
C819        H822   1.081       .  S
C820        C821   1.385       .  A
C821        H823   1.081       .  S
Cu824       N827   2.066       .  S
Cu825       N835   2.085       .  S
Cu826       N828   2.082       .  S
Cu826       N834   2.083       .  S
N827        N828   1.321       .  A
N827        C831   1.345       .  A
N828        C829   1.347       .  A
C829        C830   1.386       .  A
C829        H832   1.081       .  S
C830        C831   1.382       .  A
C831        H833   1.081       .  S
N834        N835   1.324       .  A
N834        C838   1.345       .  A
N835        C836   1.349       .  A
C836        C837   1.386       .  A
C836        H839   1.081       .  S
C837        C838   1.384       .  A
C837       C1504   1.481       .  S
C838        H840   1.082       .  S
N841        N842   1.323       .  A
N841        C845   1.347       .  A
N841       Cu849   2.086       .  S
N842        C843   1.345       .  A
N842       Cu848   2.070       .  S
C843        C844   1.381       .  A
C843        H846   1.082       .  S
C844        C845   1.385       .  A
C845        H847   1.081       .  S
Cu848       N851   2.069       .  S
Cu849       N859   2.086       .  S
Cu850       N852   2.082       .  S
Cu850       N858   2.083       .  S
N851        N852   1.322       .  A
N851        C855   1.344       .  A
N852        C853   1.347       .  A
C853        C854   1.385       .  A
C853        H856   1.081       .  S
C854        C855   1.381       .  A
C855        H857   1.081       .  S
N858        N859   1.322       .  A
N858        C862   1.344       .  A
N859        C860   1.349       .  A
C860        C861   1.388       .  A
C860        H863   1.081       .  S
C861        C862   1.386       .  A
C861       C1490   1.486       .  S
C862        H864   1.082       .  S
N865        N866   1.324       .  A
N865        C869   1.346       .  A
N865       Cu873   2.075       .  S
N866        C867   1.345       .  A
N866       Cu872   2.080       .  S
C867        C868   1.382       .  A
C867        H870   1.081       .  S
C868        C869   1.381       .  A
C868        C988   1.468       .  S
C869        H871   1.081       .  S
Cu872       N875   2.079       .  S
Cu873       N883   2.075       .  S
Cu874       N876   2.076       .  S
Cu874       N882   2.077       .  S
N875        N876   1.322       .  A
N875        C879   1.347       .  A
N876        C877   1.346       .  A
C877        C878   1.382       .  A
C877        H880   1.081       .  S
C878        C879   1.383       .  A
C878        C950   1.469       .  S
C879        H881   1.081       .  S
N882        N883   1.322       .  A
N882        C886   1.344       .  A
N883        C884   1.347       .  A
C884        C885   1.385       .  A
C884        H887   1.081       .  S
C885        C886   1.385       .  A
C885       C1476   1.481       .  S
C886        H888   1.082       .  S
N889        N890   1.323       .  A
N889        C893   1.345       .  A
N889       Cu897   2.078       .  S
N890        C891   1.346       .  A
N890       Cu896   2.076       .  S
C891        C892   1.383       .  A
C891        H894   1.081       .  S
C892        C893   1.383       .  A
C892        C998   1.471       .  S
C893        H895   1.081       .  S
Cu896       N899   2.076       .  S
Cu897       N907   2.078       .  S
Cu898       N900   2.085       .  S
Cu898       N906   2.085       .  S
N899        N900   1.323       .  A
N899        C903   1.346       .  A
N900        C901   1.347       .  A
C901        C902   1.385       .  A
C901        H904   1.081       .  S
C902        C903   1.382       .  A
C902        C974   1.473       .  S
C903        H905   1.082       .  S
N906        N907   1.322       .  A
N906        C910   1.347       .  A
N907        C908   1.346       .  A
C908        C909   1.384       .  A
C908        H911   1.082       .  S
C909        C910   1.387       .  A
C909       C1462   1.482       .  S
C910        H912   1.082       .  S
N913        N914   1.324       .  A
N913        C917   1.348       .  A
N913       Cu921   2.085       .  S
N914        C915   1.344       .  A
N914       Cu920   2.073       .  S
C915        C916   1.381       .  A
C915        H918   1.081       .  S
C916        C917   1.385       .  A
C916        C940   1.472       .  S
C917        H919   1.082       .  S
Cu920       N923   2.072       .  S
Cu921       N931   2.084       .  S
Cu922       N924   2.063       .  S
Cu922       N930   2.064       .  S
N923        N924   1.321       .  A
N923        C927   1.346       .  A
N924        C925   1.343       .  A
C925        C926   1.381       .  A
C925        H928   1.081       .  S
C926        C927   1.383       .  A
C926        C964   1.466       .  S
C927        H929   1.081       .  S
N930        N931   1.321       .  A
N930        C934   1.341       .  A
N931        C932   1.348       .  A
C932        C933   1.388       .  A
C932        H935   1.081       .  S
C933        C934   1.383       .  A
C933       C1448   1.482       .  S
C934        H936   1.082       .  S
N937        N938   1.323       .  A
N937        C941   1.346       .  A
N937       Cu945   2.087       .  S
N938        C939   1.346       .  A
N938       Cu944   2.075       .  S
C939        C940   1.382       .  A
C939        H942   1.081       .  S
C940        C941   1.385       .  A
C941        H943   1.081       .  S
Cu944       N947   2.075       .  S
Cu945       N955   2.087       .  S
Cu946       N948   2.078       .  S
Cu946       N954   2.078       .  S
N947        N948   1.322       .  A
N947        C951   1.345       .  A
N948        C949   1.347       .  A
C949        C950   1.383       .  A
C949        H952   1.081       .  S
C950        C951   1.382       .  A
C951        H953   1.081       .  S
N954        N955   1.323       .  A
N954        C958   1.347       .  A
N955        C956   1.347       .  A
C956        C957   1.387       .  A
C956        H959   1.082       .  S
C957        C958   1.384       .  A
C957       C1434   1.483       .  S
C958        H960   1.081       .  S
N961        N962   1.322       .  A
N961        C965   1.346       .  A
N961       Cu969   2.065       .  S
N962        C963   1.344       .  A
N962       Cu968   2.075       .  S
C963        C964   1.382       .  A
C963        H966   1.081       .  S
C964        C965   1.381       .  A
C965        H967   1.081       .  S
Cu968       N971   2.076       .  S
Cu969       N979   2.066       .  S
Cu970       N972   2.088       .  S
Cu970       N978   2.088       .  S
N971        N972   1.323       .  A
N971        C975   1.346       .  A
N972        C973   1.348       .  A
C973        C974   1.385       .  A
C973        H976   1.081       .  S
C974        C975   1.382       .  A
C975        H977   1.082       .  S
N978        N979   1.323       .  A
N978        C982   1.348       .  A
N979        C980   1.344       .  A
C980        C981   1.380       .  A
C980        H983   1.082       .  S
C981        C982   1.385       .  A
C981       C1420   1.474       .  S
C982        H984   1.082       .  S
N985        N986   1.321       .  A
N985        C989   1.344       .  A
N985       Cu993   2.066       .  S
N986        C987   1.346       .  A
N986       Cu992   2.073       .  S
C987        C988   1.384       .  A
C987        H990   1.081       .  S
C988        C989   1.381       .  A
C989        H991   1.081       .  S
Cu992       N995   2.073       .  S
Cu993      N1003   2.066       .  S
Cu994       N996   2.085       .  S
Cu994      N1002   2.084       .  S
N995        N996   1.324       .  A
N995        C999   1.344       .  A
N996        C997   1.347       .  A
C997        C998   1.384       .  A
C997       H1000   1.081       .  S
C998        C999   1.381       .  A
C999       H1001   1.082       .  S
N1002      N1003   1.322       .  A
N1002      C1006   1.347       .  A
N1003      C1004   1.343       .  A
C1004      C1005   1.382       .  A
C1004      H1007   1.082       .  S
C1005      C1006   1.387       .  A
C1005      C1406   1.480       .  S
C1006      H1008   1.082       .  S
N1009      N1010   1.322       .  A
N1009      C1013   1.347       .  A
N1009     Cu1017   2.083       .  S
N1010      C1011   1.345       .  A
N1010     Cu1016   2.071       .  S
C1011      C1012   1.382       .  A
C1011      H1014   1.081       .  S
C1012      C1013   1.385       .  A
C1012      C1108   1.471       .  S
C1013      H1015   1.081       .  S
Cu1016     N1019   2.072       .  S
Cu1017     N1027   2.084       .  S
Cu1018     N1020   2.098       .  S
Cu1018     N1026   2.098       .  S
N1019      N1020   1.324       .  A
N1019      C1023   1.345       .  A
N1020      C1021   1.349       .  A
C1021      C1022   1.387       .  A
C1021      H1024   1.081       .  S
C1022      C1023   1.381       .  A
C1022      C1132   1.475       .  S
C1023      H1025   1.082       .  S
N1026      N1027   1.323       .  A
N1026      C1030   1.350       .  A
N1027      C1028   1.346       .  A
C1028      C1029   1.386       .  A
C1028      H1031   1.083       .  S
C1029      C1030   1.390       .  A
C1029      C1395   1.490       .  S
C1030      H1032   1.082       .  S
N1033      N1034   1.322       .  A
N1033      C1037   1.346       .  A
N1033     Cu1041   2.079       .  S
N1034      C1035   1.345       .  A
N1034     Cu1040   2.072       .  S
C1035      C1036   1.382       .  A
C1035      H1038   1.081       .  S
C1036      C1037   1.384       .  A
C1036      C1084   1.469       .  S
C1037      H1039   1.081       .  S
Cu1040     N1043   2.073       .  S
Cu1041     N1051   2.079       .  S
Cu1042     N1044   2.090       .  S
Cu1042     N1050   2.089       .  S
N1043      N1044   1.323       .  A
N1043      C1047   1.347       .  A
N1044      C1045   1.347       .  A
C1045      C1046   1.386       .  A
C1045      H1048   1.081       .  S
C1046      C1047   1.382       .  A
C1046      C1142   1.474       .  S
C1047      H1049   1.082       .  S
N1050      N1051   1.322       .  A
N1050      C1054   1.349       .  A
N1051      C1052   1.345       .  A
C1052      C1053   1.385       .  A
C1052      H1055   1.082       .  S
C1053      C1054   1.387       .  A
C1053      C1381   1.484       .  S
C1054      H1056   1.081       .  S
N1057      N1058   1.322       .  A
N1057      C1061   1.344       .  A
N1057     Cu1065   2.077       .  S
N1058      C1059   1.348       .  A
N1058     Cu1064   2.076       .  S
C1059      C1060   1.384       .  A
C1059      H1062   1.081       .  S
C1060      C1061   1.383       .  A
C1060      C1094   1.472       .  S
C1061      H1063   1.081       .  S
Cu1064     N1067   2.075       .  S
Cu1065     N1075   2.077       .  S
Cu1066     N1068   2.088       .  S
Cu1066     N1074   2.088       .  S
N1067      N1068   1.323       .  A
N1067      C1071   1.345       .  A
N1068      C1069   1.349       .  A
C1069      C1070   1.385       .  A
C1069      H1072   1.081       .  S
C1070      C1071   1.381       .  A
C1070      C1118   1.473       .  S
C1071      H1073   1.081       .  S
N1074      N1075   1.322       .  A
N1074      C1078   1.346       .  A
N1075      C1076   1.347       .  A
C1076      C1077   1.385       .  A
C1076      H1079   1.081       .  S
C1077      C1078   1.388       .  A
C1077      C1367   1.486       .  S
C1078      H1080   1.082       .  S
N1081      N1082   1.321       .  A
N1081      C1085   1.345       .  A
N1081     Cu1089   2.070       .  S
N1082      C1083   1.345       .  A
N1082     Cu1088   2.069       .  S
C1083      C1084   1.383       .  A
C1083      H1086   1.081       .  S
C1084      C1085   1.383       .  A
C1085      H1087   1.081       .  S
Cu1088     N1091   2.070       .  S
Cu1089     N1099   2.071       .  S
Cu1090     N1092   2.095       .  S
Cu1090     N1098   2.096       .  S
N1091      N1092   1.324       .  A
N1091      C1095   1.343       .  A
N1092      C1093   1.350       .  A
C1093      C1094   1.387       .  A
C1093      H1096   1.081       .  S
C1094      C1095   1.379       .  A
C1095      H1097   1.082       .  S
N1098      N1099   1.323       .  A
N1098      C1102   1.350       .  A
N1099      C1100   1.343       .  A
C1100      C1101   1.381       .  A
C1100      H1103   1.082       .  S
C1101      C1102   1.388       .  A
C1101      C1350   1.482       .  S
C1102      H1104   1.082       .  S
N1105      N1106   1.322       .  A
N1105      C1109   1.345       .  A
N1105     Cu1113   2.074       .  S
N1106      C1107   1.347       .  A
N1106     Cu1112   2.079       .  S
C1107      C1108   1.383       .  A
C1107      H1110   1.081       .  S
C1108      C1109   1.383       .  A
C1109      H1111   1.081       .  S
Cu1112     N1115   2.080       .  S
Cu1113     N1123   2.074       .  S
Cu1114     N1116   2.084       .  S
Cu1114     N1122   2.084       .  S
N1115      N1116   1.324       .  A
N1115      C1119   1.347       .  A
N1116      C1117   1.346       .  A
C1117      C1118   1.384       .  A
C1117      H1120   1.081       .  S
C1118      C1119   1.383       .  A
C1119      H1121   1.082       .  S
N1122      N1123   1.321       .  A
N1122      C1126   1.348       .  A
N1123      C1124   1.344       .  A
C1124      C1125   1.385       .  A
C1124      H1127   1.080       .  S
C1125      C1126   1.388       .  A
C1125      C1336   1.485       .  S
C1126      H1128   1.082       .  S
N1129      N1130   1.322       .  A
N1129      C1133   1.348       .  A
N1129     Cu1137   2.088       .  S
N1130      C1131   1.347       .  A
N1130     Cu1136   2.073       .  S
C1131      C1132   1.383       .  A
C1131      H1134   1.082       .  S
C1132      C1133   1.386       .  A
C1133      H1135   1.081       .  S
Cu1136     N1139   2.073       .  S
Cu1137     N1147   2.089       .  S
Cu1138     N1140   2.094       .  S
Cu1138     N1146   2.094       .  S
N1139      N1140   1.323       .  A
N1139      C1143   1.344       .  A
N1140      C1141   1.349       .  A
C1141      C1142   1.387       .  A
C1141      H1144   1.081       .  S
C1142      C1143   1.381       .  A
C1143      H1145   1.081       .  S
N1146      N1147   1.324       .  A
N1146      C1150   1.349       .  A
N1147      C1148   1.348       .  A
C1148      C1149   1.385       .  A
C1148      H1151   1.082       .  S
C1149      C1150   1.385       .  A
C1149      C1322   1.484       .  S
C1150      H1152   1.082       .  S
O1153     Cu1161   2.011       .  S
O1153      C1163   1.279       .  A
O1154     Cu1161   2.008       .  S
O1154      C1164   1.278       .  A
O1155     Cu1161   2.011       .  S
O1155      C1165   1.278       .  A
O1156     Cu1161   2.010       .  S
O1156      C1166   1.278       .  A
O1157     Cu1162   2.040       .  S
O1157      C1166   1.281       .  A
O1158     Cu1162   2.028       .  S
O1158      C1165   1.279       .  A
O1159     Cu1162   2.039       .  S
O1159      C1164   1.281       .  A
O1160     Cu1162   2.041       .  S
O1160      C1163   1.281       .  A
Cu1161    Cu1162   2.366       .  S
C1163      C1325   1.496       .  S
C1164      C1521   1.493       .  S
C1165      C1437   1.485       .  S
C1166      C1602   1.490       .  S
O1167     Cu1175   2.026       .  S
O1167      C1177   1.280       .  A
O1168     Cu1175   2.017       .  S
O1168      C1178   1.278       .  A
O1169     Cu1175   2.012       .  S
O1169      C1179   1.277       .  A
O1170     Cu1175   2.029       .  S
O1170      C1180   1.279       .  A
O1171     Cu1176   1.999       .  S
O1171      C1180   1.277       .  A
O1172     Cu1176   2.005       .  S
O1172      C1179   1.279       .  A
O1173     Cu1176   1.996       .  S
O1173      C1178   1.276       .  A
O1174     Cu1176   2.002       .  S
O1174      C1177   1.276       .  A
Cu1175    Cu1176   2.373       .  S
C1177      C1574   1.479       .  S
C1178      C1826   1.470       .  S
C1179      C1756   1.484       .  S
C1180      C1339   1.477       .  S
O1181     Cu1189   2.003       .  S
O1181      C1191   1.278       .  A
O1182     Cu1189   2.002       .  S
O1182      C1192   1.278       .  A
O1183     Cu1189   1.996       .  S
O1183      C1193   1.277       .  A
O1184     Cu1189   1.992       .  S
O1184      C1194   1.277       .  A
O1185     Cu1190   2.016       .  S
O1185      C1194   1.278       .  A
O1186     Cu1190   2.033       .  S
O1186      C1193   1.281       .  A
O1187     Cu1190   2.022       .  S
O1187      C1192   1.279       .  A
O1188     Cu1190   2.026       .  S
O1188      C1191   1.279       .  A
Cu1189    Cu1190   2.370       .  S
C1191      C1423   1.488       .  S
C1192      C1843   1.482       .  S
C1193      C1353   1.485       .  S
C1194      C1910   1.475       .  S
O1195     Cu1203   2.005       .  S
O1195      C1205   1.278       .  A
O1196     Cu1203   2.014       .  S
O1196      C1206   1.280       .  A
O1197     Cu1203   2.000       .  S
O1197      C1207   1.275       .  A
O1198     Cu1203   2.002       .  S
O1198      C1208   1.277       .  A
O1199     Cu1204   2.032       .  S
O1199      C1208   1.281       .  A
O1200     Cu1204   2.006       .  S
O1200      C1207   1.279       .  A
O1201     Cu1204   2.014       .  S
O1201      C1206   1.277       .  A
O1202     Cu1204   2.019       .  S
O1202      C1205   1.278       .  A
Cu1203    Cu1204   2.372       .  S
C1205      C1409   1.478       .  S
C1206      C1689   1.485       .  S
C1207      C1927   1.474       .  S
C1208      C1507   1.486       .  S
O1209     Cu1217   2.022       .  S
O1209      C1219   1.278       .  A
O1210     Cu1217   2.036       .  S
O1210      C1220   1.282       .  A
O1211     Cu1217   2.042       .  S
O1211      C1221   1.281       .  A
O1212     Cu1217   2.043       .  S
O1212      C1222   1.281       .  A
O1213     Cu1218   2.007       .  S
O1213      C1222   1.278       .  A
O1214     Cu1218   2.003       .  S
O1214      C1221   1.277       .  A
O1215     Cu1218   2.003       .  S
O1215      C1220   1.276       .  A
O1216     Cu1218   2.002       .  S
O1216      C1219   1.278       .  A
Cu1217    Cu1218   2.369       .  S
C1219      C1745   1.482       .  S
C1220      C1493   1.484       .  S
C1221      C1661   1.488       .  S
C1222      C1591   1.488       .  S
O1223     Cu1231   2.002       .  S
O1223      C1233   1.275       .  A
O1224     Cu1231   1.996       .  S
O1224      C1234   1.277       .  A
O1225     Cu1231   2.009       .  S
O1225      C1235   1.279       .  A
O1226     Cu1231   2.013       .  S
O1226      C1236   1.280       .  A
O1227     Cu1232   2.017       .  S
O1227      C1236   1.278       .  A
O1228     Cu1232   2.017       .  S
O1228      C1235   1.278       .  A
O1229     Cu1232   2.023       .  S
O1229      C1234   1.279       .  A
O1230     Cu1232   2.034       .  S
O1230      C1233   1.282       .  A
Cu1231    Cu1232   2.370       .  S
C1233      C1773   1.485       .  S
C1234      C1941   1.480       .  S
C1235      C1672   1.483       .  S
C1236      C1857   1.486       .  S
O1237     Cu1245   2.030   1_545  S
O1237      C1247   1.282       .  A
O1238     Cu1245   2.031   1_655  S
O1238      C1248   1.280       .  A
O1239     Cu1245   2.030   1_645  S
O1239      C1249   1.279       .  A
O1240     Cu1245   2.024       .  S
O1240      C1250   1.278       .  A
O1241     Cu1246   2.020       .  S
O1241      C1250   1.280       .  A
O1242     Cu1246   2.002   1_645  S
O1242      C1249   1.279       .  A
O1243     Cu1246   2.000   1_655  S
O1243      C1248   1.277       .  A
O1244     Cu1246   2.002   1_545  S
O1244      C1247   1.275       .  A
Cu1245    Cu1246   2.370       .  S
C1247      C1364   1.482       .  S
C1248      C1549   1.483       .  S
C1249      C1465   1.486       .  S
C1250      C1633   1.487       .  S
O1251     Cu1259   2.011   1_565  S
O1251      C1261   1.280       .  A
O1252     Cu1259   2.014   1_655  S
O1252      C1262   1.279       .  A
O1253     Cu1259   2.010   1_665  S
O1253      C1263   1.276       .  A
O1254     Cu1259   2.009       .  S
O1254      C1264   1.277       .  A
O1255     Cu1260   2.014       .  S
O1255      C1264   1.280       .  A
O1256     Cu1260   2.012   1_665  S
O1256      C1263   1.280       .  A
O1257     Cu1260   1.994   1_655  S
O1257      C1262   1.275       .  A
O1258     Cu1260   1.993   1_565  S
O1258      C1261   1.274       .  A
Cu1259    Cu1260   2.375       .  S
C1261      C1801   1.471       .  S
C1262      C1966   1.472       .  S
C1263      C1731   1.479       .  S
C1264      C1885   1.479       .  S
O1265     Cu1273   2.021       .  S
O1265      C1275   1.278       .  A
O1266     Cu1273   2.013   1_546  S
O1266      C1276   1.277       .  A
O1267     Cu1273   2.038   1_556  S
O1267      C1277   1.281       .  A
O1268     Cu1273   2.025   1_545  S
O1268      C1278   1.281       .  A
O1269     Cu1274   2.008   1_545  S
O1269      C1278   1.276       .  A
O1270     Cu1274   2.010   1_556  S
O1270      C1277   1.276       .  A
O1271     Cu1274   2.020   1_546  S
O1271      C1276   1.281       .  A
O1272     Cu1274   2.001       .  S
O1272      C1275   1.279       .  A
Cu1273    Cu1274   2.369       .  S
C1275      C1619   1.490       .  S
C1276      C1871   1.485       .  S
C1277      C1815   1.482       .  S
C1278      C1378   1.484       .  S
O1279     Cu1287   2.028   1_556  S
O1279      C1289   1.280       .  A
O1280     Cu1287   2.033   1_655  S
O1280      C1290   1.280       .  A
O1281     Cu1287   2.019       .  S
O1281      C1291   1.279       .  A
O1282     Cu1287   2.012   1_656  S
O1282      C1292   1.277       .  A
O1283     Cu1288   2.008   1_656  S
O1283      C1292   1.278       .  A
O1284     Cu1288   2.006       .  S
O1284      C1291   1.277       .  A
O1285     Cu1288   1.995   1_655  S
O1285      C1290   1.277       .  A
O1286     Cu1288   1.993   1_556  S
O1286      C1289   1.277       .  A
Cu1287    Cu1288   2.371       .  S
C1289      C1896   1.481       .  S
C1290      C1479   1.485       .  S
C1291      C1392   1.481       .  S
C1292      C1955   1.475       .  S
O1293     Cu1301   2.023   1_546  S
O1293      C1303   1.279       .  A
O1294     Cu1301   2.016       .  S
O1294      C1304   1.280       .  A
O1295     Cu1301   2.004   1_545  S
O1295      C1305   1.277       .  A
O1296     Cu1301   2.000   1_556  S
O1296      C1306   1.276       .  A
O1297     Cu1302   2.006   1_556  S
O1297      C1306   1.279       .  A
O1298     Cu1302   2.011   1_545  S
O1298      C1305   1.279       .  A
O1299     Cu1302   2.012       .  S
O1299      C1304   1.277       .  A
O1300     Cu1302   2.009   1_546  S
O1300      C1303   1.278       .  A
Cu1301    Cu1302   2.372       .  S
C1303      C1983   1.481       .  S
C1304      C1563   1.482       .  S
C1305      C1451   1.476       .  S
C1306      C1717   1.481       .  S
O1307     Cu1315   2.009       .  S
O1307      C1317   1.277       .  A
O1308     Cu1315   2.016   1_654  S
O1308      C1318   1.279       .  A
O1309     Cu1315   2.019   1_554  S
O1309      C1319   1.280       .  A
O1310     Cu1315   2.037   1_655  S
O1310      C1320   1.280       .  A
O1311     Cu1316   1.995   1_655  S
O1311      C1320   1.277       .  A
O1312     Cu1316   2.004   1_554  S
O1312      C1319   1.276       .  A
O1313     Cu1316   2.018   1_654  S
O1313      C1318   1.278       .  A
O1314     Cu1316   2.023       .  S
O1314      C1317   1.280       .  A
Cu1315    Cu1316   2.371       .  S
C1317      C1787   1.482       .  S
C1318      C1532   1.488       .  S
C1319      C1647   1.478       .  S
C1320      C1703   1.484       .  S
C1321      C1322   1.402       .  A
C1321      C1326   1.407       .  A
C1321      H1328   1.087       .  S
C1322      C1323   1.408       .  A
C1323      C1324   1.402       .  A
C1323      N1330   1.428       .  S
C1324      C1325   1.408       .  A
C1324      H1329   1.086       .  S
C1325      C1326   1.417       .  A
C1326      N1327   1.428       .  S
N1327      O1331   1.262       .  A
N1327      O1332   1.261       .  A
N1330      O1334   1.262       .  A
N1330      O1333   1.262       .  A
C1335      C1336   1.406       .  A
C1335      C1340   1.405       .  A
C1335      H1342   1.085       .  S
C1336      C1337   1.413       .  A
C1337      C1338   1.398       .  A
C1337      N1344   1.428       .  S
C1338      C1339   1.400       .  A
C1338      H1343   1.086       .  S
C1339      C1340   1.411       .  A
C1340      N1341   1.429       .  S
N1341      O1345   1.262       .  A
N1341      O1346   1.262       .  A
N1344      O1348   1.262       .  A
N1344      O1347   1.262       .  A
C1349      C1350   1.403       .  A
C1349      C1354   1.405       .  A
C1349      H1356   1.086       .  S
C1350      C1351   1.411       .  A
C1351      C1352   1.399       .  A
C1351      N1358   1.429       .  S
C1352      C1353   1.404       .  A
C1352      H1357   1.086       .  S
C1353      C1354   1.414       .  A
C1354      N1355   1.428       .  S
N1355      O1359   1.262       .  A
N1355      O1360   1.262       .  A
N1358      O1362   1.262       .  A
N1358      O1361   1.262       .  A
C1363      C1364   1.402       .  A
C1363      C1368   1.403       .  A
C1363      H1370   1.086       .  S
C1364      C1365   1.414       .  A
C1365      C1366   1.401       .  A
C1365      N1372   1.429       .  S
C1366      C1367   1.403       .  A
C1366      H1371   1.086       .  S
C1367      C1368   1.413       .  A
C1368      N1369   1.428       .  S
N1369      O1373   1.262       .  A
N1369      O1374   1.262       .  A
N1372      O1376   1.262       .  A
N1372      O1375   1.262       .  A
C1377      C1378   1.403       .  A
C1377      C1382   1.403       .  A
C1377      H1384   1.086       .  S
C1378      C1379   1.415       .  A
C1379      C1380   1.402       .  A
C1379      N1386   1.429       .  S
C1380      C1381   1.403       .  A
C1380      H1385   1.086       .  S
C1381      C1382   1.411       .  A
C1382      N1383   1.428       .  S
N1383      O1387   1.262       .  A
N1383      O1388   1.262       .  A
N1386      O1390   1.262   1_545  A
N1386      O1389   1.262       .  A
C1391      C1392   1.403       .  A
C1391      C1396   1.403       .  A
C1391      H1398   1.085       .  S
C1392      C1393   1.409       .  A
C1393      C1394   1.404       .  A
C1393      N1400   1.430       .  S
C1394      C1395   1.408       .  A
C1394      H1399   1.084       .  S
C1395      C1396   1.414       .  A
C1396      N1397   1.428       .  S
N1397      O1401   1.262       .  A
N1397      O1402   1.262       .  A
N1400      O1404   1.262       .  A
N1400      O1403   1.262       .  A
C1405      C1406   1.403       .  A
C1405      C1410   1.403       .  A
C1405      H1412   1.086       .  S
C1406      C1407   1.411       .  A
C1407      C1408   1.398       .  A
C1407      N1414   1.428       .  S
C1408      C1409   1.400       .  A
C1408      H1413   1.087       .  S
C1409      C1410   1.413       .  A
C1410      N1411   1.429       .  S
N1411      O1415   1.262       .  A
N1411      O1416   1.262       .  A
N1414      O1418   1.262       .  A
N1414      O1417   1.262       .  A
C1419      C1420   1.399       .  A
C1419      C1424   1.403       .  A
C1419      H1426   1.087       .  S
C1420      C1421   1.408       .  A
C1421      C1422   1.399       .  A
C1421      N1428   1.429       .  S
C1422      C1423   1.406       .  A
C1422      H1427   1.086       .  S
C1423      C1424   1.417       .  A
C1424      N1425   1.428       .  S
N1425      O1429   1.261       .  A
N1425      O1430   1.262       .  A
N1428      O1432   1.262       .  A
N1428      O1431   1.262       .  A
C1433      C1434   1.402       .  A
C1433      C1438   1.403       .  A
C1433      H1440   1.086       .  S
C1434      C1435   1.412       .  A
C1435      C1436   1.402       .  A
C1435      N1442   1.428       .  S
C1436      C1437   1.404       .  A
C1436      H1441   1.086       .  S
C1437      C1438   1.412       .  A
C1438      N1439   1.426       .  S
N1439      O1443   1.261       .  A
N1439      O1444   1.262       .  A
N1442      O1446   1.262       .  A
N1442      O1445   1.262       .  A
C1447      C1448   1.404       .  A
C1447      C1452   1.398       .  A
C1447      H1454   1.086       .  S
C1448      C1449   1.412       .  A
C1449      C1450   1.401       .  A
C1449      N1456   1.428       .  S
C1450      C1451   1.402       .  A
C1450      H1455   1.086       .  S
C1451      C1452   1.410       .  A
C1452      N1453   1.429       .  S
N1453      O1457   1.262       .  A
N1453      O1458   1.262       .  A
N1456      O1460   1.262       .  A
N1456      O1459   1.262       .  A
C1461      C1462   1.404       .  A
C1461      C1466   1.406       .  A
C1461      H1468   1.086       .  S
C1462      C1463   1.409       .  A
C1463      C1464   1.397       .  A
C1463      N1470   1.428       .  S
C1464      C1465   1.404       .  A
C1464      H1469   1.087       .  S
C1465      C1466   1.415       .  A
C1466      N1467   1.429       .  S
N1467      O1471   1.262       .  A
N1467      O1472   1.262   1_655  A
N1470      O1474   1.262       .  A
N1470      O1473   1.262       .  A
C1475      C1476   1.404       .  A
C1475      C1480   1.402       .  A
C1475      H1482   1.086       .  S
C1476      C1477   1.410       .  A
C1477      C1478   1.400       .  A
C1477      N1484   1.429       .  S
C1478      C1479   1.406       .  A
C1478      H1483   1.086       .  S
C1479      C1480   1.412       .  A
C1480      N1481   1.428       .  S
N1481      O1485   1.262       .  A
N1481      O1486   1.262       .  A
N1484      O1488   1.262       .  A
N1484      O1487   1.262       .  A
C1489      C1490   1.403       .  A
C1489      C1494   1.400       .  A
C1489      H1496   1.086       .  S
C1490      C1491   1.413       .  A
C1491      C1492   1.406       .  A
C1491      N1498   1.428       .  S
C1492      C1493   1.404       .  A
C1492      H1497   1.086       .  S
C1493      C1494   1.413       .  A
C1494      N1495   1.429       .  S
N1495      O1499   1.262       .  A
N1495      O1500   1.262       .  A
N1498      O1502   1.262       .  A
N1498      O1501   1.262       .  A
C1503      C1504   1.403       .  A
C1503      C1508   1.402       .  A
C1503      H1510   1.087       .  S
C1504      C1505   1.410       .  A
C1505      C1506   1.402       .  A
C1505      N1512   1.429       .  S
C1506      C1507   1.406       .  A
C1506      H1511   1.087       .  S
C1507      C1508   1.412       .  A
C1508      N1509   1.428       .  S
N1509      O1513   1.262       .  A
N1509      O1514   1.262       .  A
N1512      O1516   1.262       .  A
N1512      O1515   1.262       .  A
C1517      C1518   1.402       .  A
C1517      C1522   1.405       .  A
C1517      H1524   1.086       .  S
C1518      C1519   1.410       .  A
C1519      C1520   1.403       .  A
C1519      N1526   1.429       .  S
C1520      C1521   1.407       .  A
C1520      H1525   1.086       .  S
C1521      C1522   1.415       .  A
C1522      N1523   1.428       .  S
N1523      O1527   1.262       .  A
N1523      O1528   1.262       .  A
N1526      O1530   1.262       .  A
N1526      O1529   1.262       .  A
C1531      C1532   1.407       .  A
C1531      C1536   1.403       .  A
C1531      H1538   1.085       .  S
C1532      C1533   1.414       .  A
C1533      C1534   1.400       .  A
C1533      N1540   1.428       .  S
C1534      C1535   1.402       .  A
C1534      H1539   1.086       .  S
C1535      C1536   1.410       .  A
C1536      N1537   1.429       .  S
N1537      O1541   1.262       .  A
N1537      O1542   1.262       .  A
N1540      O1544   1.262       .  A
N1540      O1543   1.262       .  A
C1545      C1546   1.403       .  A
C1545      C1550   1.400       .  A
C1545      H1552   1.087       .  S
C1546      C1547   1.413       .  A
C1547      C1548   1.401       .  A
C1547      N1554   1.428       .  S
C1548      C1549   1.405       .  A
C1548      H1553   1.087       .  S
C1549      C1550   1.410       .  A
C1550      N1551   1.426       .  S
N1551      O1555   1.261       .  A
N1551      O1556   1.261       .  A
N1554      O1558   1.262       .  A
N1554      O1557   1.262       .  A
C1559      C1560   1.404       .  A
C1559      C1564   1.401       .  A
C1559      H1566   1.086       .  S
C1560      C1561   1.413       .  A
C1561      C1562   1.401       .  A
C1561      N1568   1.428       .  S
C1562      C1563   1.403       .  A
C1562      H1567   1.086       .  S
C1563      C1564   1.413       .  A
C1564      N1565   1.429       .  S
N1565      O1569   1.262       .  A
N1565      O1570   1.262       .  A
N1568      O1572   1.262       .  A
N1568      O1571   1.262       .  A
C1573      C1574   1.404       .  A
C1573      C1578   1.403       .  A
C1573      H1580   1.087       .  S
C1574      C1575   1.409       .  A
C1575      C1576   1.398       .  A
C1575      N1582   1.426       .  S
C1576      C1577   1.402       .  A
C1576      H1581   1.086       .  S
C1577      C1578   1.412       .  A
C1578      N1579   1.428       .  S
N1579      O1583   1.262       .  A
N1579      O1584   1.262       .  A
N1582      O1586   1.262       .  A
N1582      O1585   1.261       .  A
C1587      C1588   1.406       .  A
C1587      C1592   1.407       .  A
C1587      H1594   1.086       .  S
C1588      C1589   1.414       .  A
C1589      C1590   1.400       .  A
C1589      N1596   1.428       .  S
C1590      C1591   1.403       .  A
C1590      H1595   1.086       .  S
C1591      C1592   1.413       .  A
C1592      N1593   1.428       .  S
N1593      O1597   1.262       .  A
N1593      O1598   1.262       .  A
N1596      O1600   1.262       .  A
N1596      O1599   1.262       .  A
C1601      C1602   1.405       .  A
C1601      C1606   1.402       .  A
C1601      H1608   1.087       .  S
C1602      C1603   1.414       .  A
C1603      C1604   1.405       .  A
C1603      N1610   1.428       .  S
C1604      C1605   1.404       .  A
C1604      H1609   1.086       .  S
C1605      C1606   1.413       .  A
C1606      N1607   1.429       .  S
N1607      O1611   1.262       .  A
N1607      O1612   1.262       .  A
N1610      O1614   1.262       .  A
N1610      O1613   1.262       .  A
C1615      C1616   1.400       .  A
C1615      C1620   1.405       .  A
C1615      H1622   1.086       .  S
C1616      C1617   1.405       .  A
C1617      C1618   1.396       .  A
C1617      N1624   1.428       .  S
C1618      C1619   1.406       .  A
C1618      H1623   1.085       .  S
C1619      C1620   1.419       .  A
C1620      N1621   1.429       .  S
N1621      O1625   1.262       .  A
N1621      O1626   1.262       .  A
N1624      O1628   1.262       .  A
N1624      O1627   1.262       .  A
C1629      C1630   1.402       .  A
C1629      C1634   1.401       .  A
C1629      H1636   1.086       .  S
C1630      C1631   1.413       .  A
C1631      C1632   1.403       .  A
C1631      N1638   1.428       .  S
C1632      C1633   1.404       .  A
C1632      H1637   1.086       .  S
C1633      C1634   1.413       .  A
C1634      N1635   1.427       .  S
N1635      O1639   1.262       .  A
N1635      O1640   1.261       .  A
N1638      O1642   1.262       .  A
N1638      O1641   1.262       .  A
C1643      C1644   1.403       .  A
C1643      C1648   1.399       .  A
C1643      H1650   1.086       .  S
C1644      C1645   1.412       .  A
C1645      C1646   1.401       .  A
C1645      N1652   1.428       .  S
C1646      C1647   1.403       .  A
C1646      H1651   1.087       .  S
C1647      C1648   1.411       .  A
C1648      N1649   1.429       .  S
N1649      O1653   1.262       .  A
N1649      O1654   1.262       .  A
N1652      O1656   1.262       .  A
N1652      O1655   1.262       .  A
C1657      C1658   1.408       .  A
C1657      C1662   1.410       .  A
C1657      H1664   1.058       .  S
C1658      C1659   1.408       .  A
C1659      C1660   1.404       .  A
C1659      N1666   1.429       .  S
C1660      C1661   1.408       .  A
C1660      H1665   1.062       .  S
C1661      C1662   1.411       .  A
C1662      N1663   1.428       .  S
N1663      O1667   1.262       .  A
N1663      O1668   1.261       .  A
N1666      O1670   1.262       .  A
N1666      O1669   1.262       .  A
C1671      C1672   1.404       .  A
C1671      C1676   1.399       .  A
C1671      H1678   1.086       .  S
C1672      C1673   1.414       .  A
C1673      C1674   1.401       .  A
C1673      N1680   1.427       .  S
C1674      C1675   1.400       .  A
C1674      H1679   1.086       .  S
C1675      C1676   1.410       .  A
C1676      N1677   1.428       .  S
N1677      O1681   1.262       .  A
N1677      O1682   1.262       .  A
N1680      O1684   1.261       .  A
N1680      O1683   1.262       .  A
C1685      C1686   1.401       .  A
C1685      C1690   1.403       .  A
C1685      H1692   1.086       .  S
C1686      C1687   1.409       .  A
C1687      C1688   1.398       .  A
C1687      N1694   1.428       .  S
C1688      C1689   1.404       .  A
C1688      H1693   1.086       .  S
C1689      C1690   1.416       .  A
C1690      N1691   1.429       .  S
N1691      O1695   1.262       .  A
N1691      O1696   1.262       .  A
N1694      O1698   1.262       .  A
N1694      O1697   1.262       .  A
C1699      C1700   1.405       .  A
C1699      C1704   1.406       .  A
C1699      H1706   1.086       .  S
C1700      C1701   1.410       .  A
C1701      C1702   1.397       .  A
C1701      N1708   1.429       .  S
C1702      C1703   1.404       .  A
C1702      H1707   1.087       .  S
C1703      C1704   1.413       .  A
C1704      N1705   1.428       .  S
N1705      O1709   1.262       .  A
N1705      O1710   1.262       .  A
N1708      O1712   1.262       .  A
N1708      O1711   1.262       .  A
C1713      C1714   1.399       .  A
C1713      C1718   1.399       .  A
C1713      H1720   1.087       .  S
C1714      C1715   1.407       .  A
C1715      C1716   1.397       .  A
C1715      N1722   1.428       .  S
C1716      C1717   1.405       .  A
C1716      H1721   1.086       .  S
C1717      C1718   1.416       .  A
C1718      N1719   1.429       .  S
N1719      O1723   1.261       .  A
N1719      O1724   1.262       .  A
N1722      O1726   1.262       .  A
N1722      O1725   1.262       .  A
C1727      C1728   1.402       .  A
C1727      C1732   1.403       .  A
C1727      H1734   1.086       .  S
C1728      C1729   1.412       .  A
C1729      C1730   1.397       .  A
C1729      N1736   1.429       .  S
C1730      C1731   1.401       .  A
C1730      H1735   1.086       .  S
C1731      C1732   1.414       .  A
C1732      N1733   1.429       .  S
N1733      O1737   1.262       .  A
N1733      O1738   1.262       .  A
N1736      O1740   1.262       .  A
N1736      O1739   1.262       .  A
C1741      C1742   1.402       .  A
C1741      C1746   1.402       .  A
C1741      H1748   1.086       .  S
C1742      C1743   1.411       .  A
C1743      C1744   1.397       .  A
C1743      N1750   1.428       .  S
C1744      C1745   1.403       .  A
C1744      H1749   1.086       .  S
C1745      C1746   1.413       .  A
C1746      N1747   1.427       .  S
N1747      O1751   1.261       .  A
N1747      O1752   1.262       .  A
N1750      O1754   1.262       .  A
N1750      O1753   1.262       .  A
C1755      C1756   1.406       .  A
C1755      C1760   1.398       .  A
C1755      H1762   1.086       .  S
C1756      C1757   1.416       .  A
C1757      C1758   1.401       .  A
C1757      N1764   1.429       .  S
C1758      C1759   1.400       .  A
C1758      H1763   1.087       .  S
C1759      C1760   1.406       .  A
C1760      N1761   1.428       .  S
N1761      O1765   1.262       .  A
N1761      O1766   1.262       .  A
N1764      O1768   1.261       .  A
N1764      O1767   1.262       .  A
C1769      C1770   1.403       .  A
C1769      C1774   1.400       .  A
C1769      H1776   1.085       .  S
C1770      C1771   1.413       .  A
C1771      C1772   1.404       .  A
C1771      N1778   1.428       .  S
C1772      C1773   1.404       .  A
C1772      H1777   1.086       .  S
C1773      C1774   1.414       .  A
C1774      N1775   1.429       .  S
N1775      O1779   1.262       .  A
N1775      O1780   1.262       .  A
N1778      O1782   1.262       .  A
N1778      O1781   1.262       .  A
C1783      C1784   1.403       .  A
C1783      C1788   1.401       .  A
C1783      H1790   1.086       .  S
C1784      C1785   1.412       .  A
C1785      C1786   1.402       .  A
C1785      N1792   1.428       .  S
C1786      C1787   1.403       .  A
C1786      H1791   1.086       .  S
C1787      C1788   1.413       .  A
C1788      N1789   1.429       .  S
N1789      O1793   1.262       .  A
N1789      O1794   1.262       .  A
N1792      O1796   1.262       .  A
N1792      O1795   1.262       .  A
C1797      C1798   1.403       .  A
C1797      C1802   1.397       .  A
C1797      H1804   1.086       .  S
C1798      C1799   1.412       .  A
C1799      C1800   1.398       .  A
C1799      N1806   1.428       .  S
C1800      C1801   1.401       .  A
C1800      H1805   1.086       .  S
C1801      C1802   1.410       .  A
C1802      N1803   1.429       .  S
N1803      O1807   1.262       .  A
N1803      O1808   1.262       .  A
N1806      O1810   1.262       .  A
N1806      O1809   1.262       .  A
C1811      C1812   1.406       .  A
C1811      C1816   1.401       .  A
C1811      H1818   1.085       .  S
C1812      C1813   1.418       .  A
C1813      C1814   1.407       .  A
C1813      N1820   1.428       .  S
C1814      C1815   1.402       .  A
C1814      H1819   1.086       .  S
C1815      C1816   1.409       .  A
C1816      N1817   1.429       .  S
N1817      O1821   1.262       .  A
N1817      O1822   1.262       .  A
N1820      O1824   1.262       .  A
N1820      O1823   1.262       .  A
C1825      C1826   1.401       .  A
C1825      C1830   1.398       .  A
C1825      H1832   1.087       .  S
C1826      C1827   1.407       .  A
C1827      C1828   1.399       .  A
C1827      N1834   1.428       .  S
C1828      C1829   1.406       .  A
C1828      H1833   1.086       .  S
C1829      C1830   1.413       .  A
C1830      N1831   1.428       .  S
N1831      O1835   1.262       .  A
N1831      O1836   1.262       .  A
N1834      O1838   1.262       .  A
N1834      O1837   1.262       .  A
C1839      C1840   1.402       .  A
C1839      C1844   1.402       .  A
C1839      H1846   1.087       .  S
C1840      C1841   1.411       .  A
C1841      C1842   1.399       .  A
C1841      N1848   1.429       .  S
C1842      C1843   1.404       .  A
C1842      H1847   1.087       .  S
C1843      C1844   1.413       .  A
C1844      N1845   1.428       .  S
N1845      O1849   1.262       .  A
N1845      O1850   1.262       .  A
N1848      O1852   1.262       .  A
N1848      O1851   1.262       .  A
C1853      C1854   1.399       .  A
C1853      C1858   1.402       .  A
C1853      H1860   1.086       .  S
C1854      C1855   1.408       .  A
C1855      C1856   1.400       .  A
C1855      N1862   1.428       .  S
C1856      C1857   1.405       .  A
C1856      H1861   1.086       .  S
C1857      C1858   1.417       .  A
C1858      N1859   1.428       .  S
N1859      O1863   1.262       .  A
N1859      O1864   1.262       .  A
N1862      O1866   1.262       .  A
N1862      O1865   1.262       .  A
C1867      C1868   1.401       .  A
C1867      C1872   1.402       .  A
C1867      H1874   1.086       .  S
C1868      C1869   1.411       .  A
C1869      C1870   1.401       .  A
C1869      N1876   1.428       .  S
C1870      C1871   1.403       .  A
C1870      H1875   1.086       .  S
C1871      C1872   1.416       .  A
C1872      N1873   1.429       .  S
N1873      O1877   1.262       .  A
N1873      O1878   1.262       .  A
N1876      O1880   1.262       .  A
N1876      O1879   1.262       .  A
C1881      C1882   1.401       .  A
C1881      C1886   1.400       .  A
C1881      H1888   1.086       .  S
C1882      C1883   1.412       .  A
C1883      C1884   1.400       .  A
C1883      N1890   1.429       .  S
C1884      C1885   1.402       .  A
C1884      H1889   1.086       .  S
C1885      C1886   1.413       .  A
C1886      N1887   1.429       .  S
N1887      O1891   1.262       .  A
N1887      O1892   1.262       .  A
N1890      O1894   1.262       .  A
N1890      O1893   1.262       .  A
C1895      C1896   1.406       .  A
C1895      C1900   1.398       .  A
C1895      H1902   1.087       .  S
C1896      C1897   1.412       .  A
C1897      C1898   1.400       .  A
C1897      N1904   1.427       .  S
C1898      C1899   1.401       .  A
C1898      H1903   1.087       .  S
C1899      C1900   1.407       .  A
C1900      N1901   1.428       .  S
N1901      O1905   1.262       .  A
N1901      O1906   1.262       .  A
N1904      O1908   1.260       .  A
N1904      O1907   1.262       .  A
C1909      C1910   1.402       .  A
C1909      C1914   1.395       .  A
C1909      H1916   1.087       .  S
C1910      C1911   1.411       .  A
C1911      C1912   1.399       .  A
C1911      N1918   1.427       .  S
C1912      C1913   1.401       .  A
C1912      H1917   1.086       .  S
C1913      C1914   1.410       .  A
C1914      N1915   1.429       .  S
N1915      O1919   1.262       .  A
N1915      O1920   1.262       .  A
N1918      O1922   1.261       .  A
N1918      O1921   1.262       .  A
C1923      C1924   1.401       .  A
C1923      C1928   1.398       .  A
C1923      H1930   1.086       .  S
C1924      C1925   1.408       .  A
C1925      C1926   1.397       .  A
C1925      N1932   1.428       .  S
C1926      C1927   1.403       .  A
C1926      H1931   1.086       .  S
C1927      C1928   1.413       .  A
C1928      N1929   1.429       .  S
N1929      O1933   1.262       .  A
N1929      O1934   1.262       .  A
N1932      O1936   1.262       .  A
N1932      O1935   1.262       .  A
C1937      C1938   1.403       .  A
C1937      C1942   1.401       .  A
C1937      H1944   1.087       .  S
C1938      C1939   1.409       .  A
C1939      C1940   1.397       .  A
C1939      N1946   1.428       .  S
C1940      C1941   1.404       .  A
C1940      H1945   1.087       .  S
C1941      C1942   1.411       .  A
C1942      N1943   1.427       .  S
N1943      O1947   1.261       .  A
N1943      O1948   1.262       .  A
N1946      O1950   1.262       .  A
N1946      O1949   1.262       .  A
C1951      C1952   1.403       .  A
C1951      C1956   1.397       .  A
C1951      H1958   1.087       .  S
C1952      C1953   1.413       .  A
C1953      C1954   1.401       .  A
C1953      N1960   1.427       .  S
C1954      C1955   1.402       .  A
C1954      H1959   1.087       .  S
C1955      C1956   1.408       .  A
C1956      N1957   1.426       .  S
N1957      O1961   1.261   1_655  A
N1957      O1962   1.262       .  A
N1960      O1964   1.262       .  A
N1960      O1963   1.262       .  A
C1965      C1966   1.401       .  A
C1965      C1970   1.400       .  A
C1965      H1972   1.086       .  S
C1966      C1967   1.410       .  A
C1967      C1968   1.397       .  A
C1967      N1974   1.429       .  S
C1968      C1969   1.404       .  A
C1968      H1973   1.086       .  S
C1969      C1970   1.413       .  A
C1970      N1971   1.428       .  S
N1971      O1975   1.262       .  A
N1971      O1976   1.262       .  A
N1974      O1978   1.262   1_655  A
N1974      O1977   1.262       .  A
C1979      C1980   1.402       .  A
C1979      C1984   1.398       .  A
C1979      H1986   1.086       .  S
C1980      C1981   1.411       .  A
C1981      C1982   1.403       .  A
C1981      N1988   1.428       .  S
C1982      C1983   1.404       .  A
C1982      H1987   1.087       .  S
C1983      C1984   1.410       .  A
C1984      N1985   1.427       .  S
N1985      O1989   1.262       .  A
N1985      O1990   1.262       .  A
N1988      O1992   1.262       .  A
N1988      O1991   1.262       .  A
