geometry optimzed in LAMMPS
_audit_creation_date              2020-11-30 
_audit_creation_method            'lammps2cif' 
_symmetry_space_group_name_H-M    'P1' 
_symmetry_Int_Tables_number       1 
_symmetry_cell_setting            triclinic 
loop_ 
_symmetry_equiv_pos_as_xyz 
  x,y,z 
_cell_length_a                    29.15477091 
_cell_length_b                    28.384724674436576 
_cell_length_c                    28.682613096261782 
_cell_angle_alpha                 90.03889461340194 
_cell_angle_beta                  89.8430776249877 
_cell_angle_gamma                 90.08401329225703 
loop_ 
_atom_site_label 
_atom_site_type_symbol 
_atom_site_fract_x 
_atom_site_fract_y 
_atom_site_fract_z 
_atom_site_charge 
C1          C  0.41258598  0.40487864  0.11532568     0.42900
N2          N  0.42363112  0.44848376  0.05595492     0.01800
C3          C  0.61513633  0.45119378  0.41610356    -0.06100
H4          H  0.64461684  0.47915062  0.09504149     0.07300
C5          C  0.55225827  0.62397849  0.08411909    -0.06500
Co6        Co  0.50652381  0.41921281  0.00313022     0.74200
N7          N  0.58712207  0.46069212  0.05135058    -0.25600
Co8        Co  0.58295360  0.51099537  0.49900065     0.74100
C9          C  0.59493951  0.60742777  0.10525501     0.43000
N10         N  0.44429716  0.58669962  0.05065841     0.01400
N11         N  0.57874328  0.56323227  0.04775188     0.01500
N12         N  0.56402163  0.39098313  0.41918742    -0.46500
H13         H  0.47632886  0.36003067  0.09917903     0.07200
N14         N  0.55750495  0.42569284  0.05251276     0.01800
N15         N  0.57626337  0.56095917  0.44703130     0.01500
C16         C  0.58890101  0.60569498  0.38871541     0.43100
N17         N  0.41515545  0.55126399  0.05252884    -0.25100
C18         C  0.44817225  0.38346510  0.41992468    -0.06000
N19         N  0.39518605  0.44136493  0.09117892    -0.46200
N20         N  0.60534642  0.56850840  0.41253123    -0.46400
C21         C  0.40481398  0.39771065  0.39898267     0.42900
N22         N  0.55547223  0.42312236  0.45127030     0.01800
N23         N  0.41276911  0.54785910  0.45181774    -0.25100
N24         N  0.45782506  0.41827357  0.05514929    -0.25600
N25         N  0.44164068  0.58353376  0.44971782     0.01400
H26         H  0.35424811  0.52761559  0.41124369     0.07300
H27         H  0.52440076  0.65009719  0.40383447     0.07300
N28         N  0.58495906  0.45825346  0.45031090    -0.25700
N29         N  0.54503431  0.59406797  0.04861067    -0.25300
N30         N  0.42055336  0.44481747  0.45468310     0.01800
C31         C  0.60052329  0.41351899  0.11157354     0.43200
C32         C  0.38573856  0.55850715  0.08750985    -0.06500
N33         N  0.54217520  0.59134272  0.44747112    -0.25300
H34         H  0.53092428  0.65377891  0.09308587     0.07300
N35         N  0.56446574  0.39660827  0.08758911    -0.46500
H36         H  0.35681539  0.53628040  0.09625973     0.07300
C37         C  0.39490293  0.59515897  0.39357026     0.43000
C38         C  0.45388348  0.38927587  0.09141309    -0.06000
Co39       Co  0.41681291  0.49788683  0.00382022     0.73800
N40         N  0.43611818  0.61919911  0.08245590    -0.46200
C41         C  0.60089017  0.40681186  0.39554348     0.43300
N42         N  0.38950486  0.43559242  0.42259129    -0.46200
Co43       Co  0.49321757  0.59037528  0.49911316     0.73900
C44         C  0.54693762  0.62096652  0.41170210    -0.06500
C45         C  0.61616893  0.45598764  0.08729016    -0.06100
N46         N  0.45494969  0.41481796  0.45409069    -0.25600
N47         N  0.60932983  0.57014366  0.08059156    -0.46400
H48         H  0.64427529  0.47341481  0.40808460     0.07300
C49         C  0.38220212  0.55180367  0.41754227    -0.06500
Cl50       Cl  0.49982845  0.50468196  0.00113000    -0.49500
C51         C  0.39994986  0.60347135  0.10716465     0.43000
H52         H  0.46998463  0.35365671  0.41230486     0.07200
N53         N  0.43199636  0.61304946  0.41547456    -0.46200
C54         C  0.61045172  0.89335141  0.10592762     0.42900
N55         N  0.58468578  0.94013997  0.05345723     0.01800
C56         C  0.38610346  0.07618556  0.06376434    -0.06100
H57         H  0.34761039  0.91624746  0.04539882     0.07300
C58         C  0.43729869  0.91639974  0.37845505    -0.06500
Co59       Co  0.50059112  0.99179642  0.08658155     0.74200
N60         N  0.41587659  0.94428487  0.05175984    -0.25600
Co61       Co  0.41885654  0.99541455  0.99913138     0.74100
C62         C  0.39278758  0.89805646  0.39364690     0.43000
N63         N  0.55639594  0.94281451  0.41372655     0.01400
N64         N  0.41889062  0.94514065  0.44588819     0.01500
N65         N  0.43863897  0.07276988  0.12139127    -0.46500
H66         H  0.54910101  0.90814678  0.15435836     0.07200
N67         N  0.44691937  0.94217594  0.08520317     0.01800
N68         N  0.42152782  0.04716273  0.44724403     0.01500
C69         C  0.39843483  0.09695147  0.39606935     0.43100
N70         N  0.58715039  0.94228043  0.44752021    -0.25100
C71         C  0.56537040  0.07039563  0.12214653    -0.06000
N72         N  0.62004689  0.91304560  0.06433010    -0.46200
N73         N  0.38772892  0.07664121  0.43720954    -0.46400
C74         C  0.60974939  0.08902049  0.10803484     0.42900
N75         N  0.44974252  0.04438247  0.08625784     0.01800
N76         N  0.58877546  0.04331386  0.44989292    -0.25100
N77         N  0.55255537  0.94041969  0.08621251    -0.25600
N78         N  0.55803740  0.04499121  0.41618291     0.01400
H79         H  0.65453274  0.07606049  0.45953813     0.07300
H80         H  0.45930335  0.08050428  0.34756742     0.07300
N81         N  0.41910389  0.04539378  0.05245502    -0.25700
N82         N  0.45092384  0.94520346  0.41304564    -0.25300
N83         N  0.58608687  0.04151690  0.05539018     0.01800
C84         C  0.39099420  0.89867353  0.11010794     0.43200
C85         C  0.62198927  0.91427814  0.43478050    -0.06500
N86         N  0.45355049  0.04620135  0.41451494    -0.25300
H87         H  0.45434168  0.91222486  0.34517213     0.07300
N88         N  0.43307135  0.91584543  0.12090612    -0.46500
H89         H  0.65378101  0.91078166  0.45376317     0.07300
C90         C  0.61145668  0.09318028  0.39429356     0.43000
C91         C  0.56588319  0.91161420  0.12085814    -0.06000
Co92       Co  0.58660592  0.99175648  0.00166061     0.73800
N93         N  0.56942471  0.91710967  0.37721478    -0.46200
C94         C  0.39887204  0.09441102  0.10967896     0.43300
N95         N  0.62079648  0.06948486  0.06664309    -0.46200
Co96       Co  0.50475792  0.99468235  0.41397608     0.73900
C97         C  0.44180064  0.07646700  0.38062232    -0.06500
C98         C  0.37977378  0.91758224  0.06402452    -0.06100
N99         N  0.55349339  0.04109472  0.08756087    -0.25600
N100        N  0.38342200  0.91794567  0.43526856    -0.46400
H101        H  0.35490496  0.08151105  0.04418830     0.07300
C102        C  0.62335298  0.07275339  0.43952513    -0.06500
Cl103      Cl  0.50270882  0.99303751  0.00029772    -0.49500
C104        C  0.61053802  0.89763665  0.38791553     0.43000
H105        H  0.54715010  0.07480261  0.15475186     0.07200
N106        N  0.57049050  0.07409426  0.38212653    -0.46200
C107        C  0.90914698  0.38362184  0.10853733     0.42900
N108        N  0.95322001  0.40848508  0.05425645     0.01800
C109        C  0.08240934  0.61537963  0.05665832    -0.06100
H110        H  0.92308144  0.64851631  0.04144988     0.07300
C111        C  0.91914153  0.55544722  0.38042228    -0.06500
Co112      Co  0.00429200  0.49537161  0.08413794     0.74200
N113        N  0.95522461  0.58117568  0.04991177    -0.25600
Co114      Co  0.00307475  0.57876074  0.99516857     0.74100
C115        C  0.90049936  0.60067713  0.39594219     0.43000
N116        N  0.94921368  0.43691536  0.41516503     0.01400
N117        N  0.95176490  0.57741663  0.44450072     0.01500
N118        N  0.08104078  0.56282561  0.11588948    -0.46500
H119        H  0.92473042  0.44756099  0.15514966     0.07200
N120        N  0.95507541  0.54978408  0.08392806     0.01800
N121        N  0.05143179  0.57610341  0.44056884     0.01500
C122        C  0.09863923  0.59823645  0.38662122     0.43100
N123        N  0.95012622  0.40495105  0.44859608    -0.25100
C124        C  0.08114263  0.42684665  0.11820344    -0.06000
N125        N  0.92628124  0.37289486  0.06626010    -0.46200
N126        N  0.07954745  0.61067988  0.42795264    -0.46400
C127        C  0.09744588  0.38028241  0.10415039     0.42900
N128        N  0.05423467  0.54900955  0.08102925     0.01800
N129        N  0.04876840  0.40359369  0.44586412    -0.25100
N130        N  0.95488778  0.44188249  0.08648100    -0.25600
N131        N  0.04868550  0.43509799  0.41197921     0.01400
H132        H  0.08136247  0.33630650  0.45399108     0.07300
H133        H  0.08146548  0.53289545  0.34204129     0.07300
N134        N  0.05371918  0.57988747  0.04646746    -0.25700
N135        N  0.95059840  0.54378307  0.41261375    -0.25300
N136        N  0.05162449  0.40670321  0.05187691     0.01800
C137        C  0.90948168  0.60490324  0.10815455     0.43200
C138        C  0.92074083  0.37018697  0.43754980    -0.06500
N139        N  0.04982972  0.54198885  0.40925325    -0.25300
H140        H  0.91271769  0.53652630  0.34835016     0.07300
N141        N  0.92859316  0.56286759  0.11949374    -0.46500
H142        H  0.91712888  0.33749147  0.45652774     0.07300
C143        C  0.09457630  0.38053991  0.38768426     0.43000
C144        C  0.92761151  0.42931283  0.12215978    -0.06000
Co145      Co  0.00098278  0.40595718  0.00024178     0.73800
N146        N  0.92102666  0.42523794  0.38081229    -0.46200
C147        C  0.10048351  0.60400305  0.10253116     0.43300
N148        N  0.07757678  0.37002295  0.06297502    -0.46200
Co149      Co  0.99958697  0.48945734  0.41193958     0.73900
C150        C  0.07876173  0.55247874  0.37426395    -0.06500
C151        C  0.92714218  0.61670663  0.06163447    -0.06100
N152        N  0.05270059  0.44038204  0.08388872    -0.25600
N153        N  0.92309835  0.61242283  0.43528156    -0.46400
H154        H  0.08564297  0.64781177  0.03714533     0.07300
C155        C  0.07702354  0.36825444  0.43404879    -0.06500
Cl156      Cl  0.00207365  0.49238003  0.99794465    -0.49500
C157        C  0.90138046  0.38360649  0.39231401     0.43000
H158        H  0.08591568  0.44497570  0.15101318     0.07200
N159        N  0.07533408  0.42247379  0.37645973    -0.46200
C160        C  0.26580706  0.25098296  0.20491721     0.45900
H161        H  0.26990991  0.24817351  0.16653242    -0.03200
C162        C  0.25676236  0.25648499  0.29448687     0.45900
H163        H  0.25130000  0.25969681  0.33257092    -0.03200
C164        C  0.29640504  0.28863787  0.22723278    -0.16800
C165        C  0.21692374  0.26548338  0.21986217    -0.16600
C166        C  0.28011842  0.20544611  0.23049237    -0.17000
C167        C  0.29142667  0.29164882  0.27453789    -0.17000
C168        C  0.21220773  0.26762390  0.26775829    -0.16500
C169        C  0.27659430  0.20838860  0.27873337    -0.16800
C170        C  0.73587695  0.25943874  0.20359034     0.45900
H171        H  0.73253479  0.26095253  0.16528458    -0.03200
C172        C  0.74356010  0.25365724  0.29327416     0.45900
H173        H  0.74607034  0.25156514  0.33186767    -0.03200
C174        C  0.70499992  0.29399026  0.23018169    -0.16800
C175        C  0.72212374  0.21078936  0.22273852    -0.16600
C176        C  0.78444816  0.27170663  0.22056334    -0.17000
C177        C  0.70907305  0.29059110  0.27733772    -0.17000
C178        C  0.72530852  0.20792281  0.27072127    -0.16500
C179        C  0.78854248  0.26903938  0.26869686    -0.16800
C180        C  0.25449679  0.74944861  0.20625555     0.45900
H181        H  0.25783587  0.75341992  0.16793362    -0.03200
C182        C  0.24794025  0.74271482  0.29589689     0.45900
H183        H  0.24470484  0.73928052  0.33436069    -0.03200
C184        C  0.28832891  0.71450337  0.22765012    -0.16800
C185        C  0.26591084  0.79589462  0.23168709    -0.16600
C186        C  0.20739524  0.72979466  0.22202503    -0.17000
C187        C  0.28472758  0.71074741  0.27492021    -0.17000
C188        C  0.26341474  0.79236463  0.27984031    -0.16500
C189        C  0.20385762  0.72738886  0.27020754    -0.16800
C190        C  0.75224891  0.73680695  0.20529821     0.45900
H191        H  0.75450000  0.73267040  0.16682309    -0.03200
C192        C  0.74679745  0.74546506  0.29498552     0.45900
H193        H  0.74402285  0.74905943  0.33348523    -0.03200
C194        C  0.71581634  0.70520716  0.22767538    -0.16800
C195        C  0.79679149  0.72249502  0.23046098    -0.16600
C196        C  0.73728411  0.78675507  0.22056623    -0.17000
C197        C  0.71294076  0.70989454  0.27485389    -0.17000
C198        C  0.79385295  0.72634754  0.27850413    -0.16500
C199        C  0.73472555  0.79134854  0.26861835    -0.16800
C200        C  0.17275191  0.64411427  0.12389790    -0.20900
C201        C  0.12643871  0.63645303  0.13310044    -0.08900
C202        C  0.10525454  0.66219243  0.16910661     0.29900
C203        C  0.13094708  0.69397973  0.19641261    -0.20900
C204        C  0.17850245  0.70012082  0.18899951    -0.08900
C205        C  0.19856803  0.67508702  0.15113970     0.29900
F206        F  0.24345838  0.67878834  0.14004053    -0.19500
H207        H  0.18935923  0.62542560  0.09555028     0.18300
H208        H  0.11370306  0.71333883  0.22384137     0.18300
F209        F  0.05964714  0.65717826  0.17732636    -0.19500
C210        C  0.17275684  0.64622086  0.28729512    -0.20900
C211        C  0.17232142  0.69496568  0.29626987    -0.08900
C212        C  0.14793992  0.71136188  0.33534226     0.29900
C213        C  0.12432871  0.67979762  0.36448536    -0.20900
C214        C  0.12460403  0.63103601  0.35551465    -0.08900
C215        C  0.14914952  0.61458813  0.31633416     0.29900
F216        F  0.15217683  0.56782769  0.30704348    -0.19500
H217        H  0.19308721  0.63234620  0.25878830     0.18300
H218        H  0.10579711  0.69364193  0.39424589     0.18300
F219        F  0.14761834  0.75799816  0.34576692    -0.19500
C220        C  0.15300185  0.27432596  0.33064094    -0.20900
C221        C  0.17626825  0.29527166  0.29316010    -0.08900
C222        C  0.17120127  0.34416351  0.28612022     0.29900
C223        C  0.14373564  0.37115263  0.31624247    -0.20900
C224        C  0.12148497  0.35045131  0.35467327    -0.08900
C225        C  0.12570374  0.30127373  0.36090757     0.29900
F226        F  0.10360697  0.27879265  0.39609784    -0.19500
H227        H  0.15704803  0.23699109  0.33725753     0.18300
H228        H  0.14141011  0.40879187  0.31056235     0.18300
F229        F  0.19570045  0.36663886  0.25252965    -0.19500
C230        C  0.17379832  0.34904317  0.12471848    -0.20900
C231        C  0.12645570  0.34752782  0.13117472    -0.08900
C232        C  0.10798519  0.31573668  0.16390857     0.29900
C233        C  0.13718521  0.28746219  0.19116412    -0.20900
C234        C  0.18525649  0.29050323  0.18635594    -0.08900
C235        C  0.20290114  0.32104444  0.15152948     0.29900
F236        F  0.24842226  0.32643823  0.14433483    -0.19500
H237        H  0.18853045  0.37304453  0.09938734     0.18300
H238        H  0.12227984  0.26401008  0.21684317     0.18300
F239        F  0.06191023  0.31263964  0.17010134    -0.19500
C240        C  0.83219736  0.35449485  0.12700084    -0.20900
C241        C  0.87896863  0.35263685  0.13561879    -0.08900
C242        C  0.89588065  0.32108845  0.16913820     0.29900
C243        C  0.86535736  0.29310494  0.19519151    -0.20900
C244        C  0.81759187  0.29678492  0.18859444    -0.08900
C245        C  0.80177892  0.32709109  0.15268690     0.29900
F246        F  0.75692808  0.33243636  0.14242244    -0.19500
H247        H  0.81893627  0.37809764  0.10058239     0.18300
H248        H  0.87894685  0.26945008  0.22131631     0.18300
F249        F  0.94166197  0.31763602  0.17683348    -0.19500
C250        C  0.83206639  0.34399317  0.28670752    -0.20900
C251        C  0.82282457  0.29635658  0.29693039    -0.08900
C252        C  0.84009785  0.27767130  0.33876732     0.29900
C253        C  0.86549352  0.30596991  0.36953794    -0.20900
C254        C  0.87452635  0.35361687  0.35933565    -0.08900
C255        C  0.85805896  0.37205441  0.31698330     0.29900
F256        F  0.86554638  0.41777780  0.30538526    -0.19500
H257        H  0.81724737  0.36048997  0.25630137     0.18300
H258        H  0.87780658  0.29040447  0.40154599     0.18300
F259        F  0.83147365  0.23217967  0.35047546    -0.19500
C260        C  0.80099761  0.66832709  0.34457320    -0.20900
C261        C  0.82272062  0.69783133  0.31156049    -0.08900
C262        C  0.87094693  0.69656027  0.30858174     0.29900
C263        C  0.89619803  0.66507616  0.33634207    -0.20900
C264        C  0.87392069  0.63457044  0.36768742    -0.08900
C265        C  0.82615441  0.63691629  0.37204524     0.29900
F266        F  0.80367893  0.60814425  0.40226514    -0.19500
H267        H  0.76414909  0.66807222  0.34823140     0.18300
H268        H  0.93320837  0.66416888  0.33308264     0.18300
F269        F  0.89359897  0.72542321  0.27866992    -0.19500
C270        C  0.86281007  0.61642414  0.18151371    -0.20900
C271        C  0.88306026  0.63577857  0.14122758    -0.08900
C272        C  0.87737008  0.68455572  0.13322328     0.29900
C273        C  0.85155429  0.71242948  0.16402621    -0.20900
C274        C  0.83065149  0.69301016  0.20369632    -0.08900
C275        C  0.83632387  0.64429586  0.21196216     0.29900
F276        F  0.81356595  0.62267653  0.24727874    -0.19500
H277        H  0.86598904  0.57909421  0.18856341     0.18300
H278        H  0.84683366  0.74943353  0.15616495     0.18300
F279        F  0.89648049  0.70590016  0.09565813    -0.19500
C280        C  0.71643990  0.15072821  0.33694281    -0.20900
C281        C  0.69642634  0.17570858  0.30008673    -0.08900
C282        C  0.64830167  0.17404022  0.29517581     0.29900
C283        C  0.62134132  0.14682551  0.32554382    -0.20900
C284        C  0.64127745  0.12160220  0.36239100    -0.08900
C285        C  0.68945892  0.12373541  0.36761533     0.29900
F286        F  0.71097795  0.09922612  0.40167807    -0.19500
H287        H  0.75321172  0.15227936  0.34206778     0.18300
H288        H  0.58449310  0.14636839  0.32083450     0.18300
F289        F  0.62693718  0.20019620  0.26220750    -0.19500
C290        C  0.66977906  0.09911291  0.16946226    -0.20900
C291        C  0.64034062  0.11872471  0.13599097    -0.08900
C292        C  0.63899817  0.16741469  0.13015656     0.29900
C293        C  0.66612821  0.19637988  0.15785357    -0.20900
C294        C  0.69524705  0.17767273  0.19240849    -0.08900
C295        C  0.69736371  0.12833096  0.19738898     0.29900
F296        F  0.72635501  0.10839792  0.22857448    -0.19500
H297        H  0.67125330  0.06126351  0.17399257     0.18300
H298        H  0.66331445  0.23373822  0.15223290     0.18300
F299        F  0.61074692  0.18709012  0.09805904    -0.19500
C300        C  0.32129339  0.12428027  0.13398491    -0.20900
C301        C  0.36870615  0.12096440  0.14261642    -0.08900
C302        C  0.38633252  0.14287081  0.18286543     0.29900
C303        C  0.35726199  0.16844060  0.21276389    -0.20900
C304        C  0.30985199  0.17183367  0.20379936    -0.08900
C305        C  0.29228768  0.14930836  0.16409263     0.29900
F306        F  0.24697391  0.15244743  0.15383142    -0.19500
H307        H  0.30630490  0.10753363  0.10375898     0.18300
H308        H  0.37210716  0.18726026  0.24192374     0.18300
F309        F  0.43189103  0.14128801  0.19232396    -0.19500
C310        C  0.35426220  0.16966064  0.38035851    -0.20900
C311        C  0.36536769  0.12371605  0.36762930    -0.08900
C312        C  0.34404716  0.10366282  0.32852229     0.29900
C313        C  0.31239846  0.12985821  0.30228103    -0.20900
C314        C  0.30383947  0.17778699  0.31227897    -0.08900
C315        C  0.32471827  0.19675107  0.35303611     0.29900
F316        F  0.31883926  0.24192716  0.36667380    -0.19500
H317        H  0.36992332  0.18536486  0.41088348     0.18300
H318        H  0.29578068  0.11288032  0.27307176     0.18300
F319        F  0.35375327  0.05870241  0.31578750    -0.19500
C320        C  0.67645212  0.89113235  0.16228652    -0.20900
C321        C  0.64437425  0.86743696  0.13409490    -0.08900
C322        C  0.64608884  0.81842740  0.13112687     0.29900
C323        C  0.67826047  0.79326488  0.15692224    -0.20900
C324        C  0.70882373  0.81601102  0.18768203    -0.08900
C325        C  0.70851960  0.86566328  0.18894125     0.29900
F326        F  0.73897496  0.88937362  0.21592627    -0.19500
H327        H  0.67637175  0.92925490  0.16391097     0.18300
H328        H  0.67793432  0.75560062  0.15330245     0.18300
F329        F  0.61616472  0.79470887  0.10350653    -0.19500
C330        C  0.65687768  0.82857511  0.28332349    -0.20900
C331        C  0.70408266  0.82560705  0.29368020    -0.08900
C332        C  0.72022685  0.84881638  0.33361522     0.29900
C333        C  0.68988258  0.87278149  0.36329919    -0.20900
C334        C  0.64248069  0.87449518  0.35396149    -0.08900
C335        C  0.62653252  0.85336986  0.31259175     0.29900
F336        F  0.58131576  0.85458115  0.30153563    -0.19500
H337        H  0.64287174  0.80952555  0.25392403     0.18300
H338        H  0.70377271  0.88950142  0.39407149     0.18300
F339        F  0.76537834  0.84691139  0.34483134    -0.19500
C340        C  0.33024456  0.89595626  0.33356463    -0.20900
C341        C  0.35850836  0.87233002  0.36555210    -0.08900
C342        C  0.35244666  0.82400391  0.37224861     0.29900
C343        C  0.32007487  0.79924062  0.34607882    -0.20900
C344        C  0.29282293  0.82179980  0.31210005    -0.08900
C345        C  0.29729181  0.87111350  0.30739538     0.29900
F346        F  0.27015753  0.89521958  0.27738782    -0.19500
H347        H  0.33367408  0.93366969  0.32894109     0.18300
H348        H  0.31776712  0.76185503  0.35201410     0.18300
F349        F  0.37857156  0.80042798  0.40361676    -0.19500
C350        C  0.34445235  0.82971284  0.21452183    -0.20900
C351        C  0.29694210  0.82902760  0.20569335    -0.08900
C352        C  0.28063659  0.85285120  0.16618689     0.29900
C353        C  0.31114376  0.87579553  0.13575785    -0.20900
C354        C  0.35880049  0.87564809  0.14392090    -0.08900
C355        C  0.37497077  0.85320469  0.18446385     0.29900
F356        F  0.42050824  0.85198579  0.19401699    -0.19500
H357        H  0.35832955  0.81004772  0.24354454     0.18300
H358        H  0.29722215  0.89328387  0.10545625     0.18300
F359        F  0.23514735  0.85262433  0.15621951    -0.19500
C360        C  0.38786947  0.65747357  0.33353137    -0.20900
C361        C  0.36709649  0.62192823  0.36028997    -0.08900
C362        C  0.31930966  0.61516882  0.35760356     0.29900
C363        C  0.29288878  0.64466306  0.32998620    -0.20900
C364        C  0.31361042  0.67999411  0.30349290    -0.08900
C365        C  0.36134482  0.68615684  0.30486496     0.29900
F366        F  0.38187208  0.72112009  0.28012947    -0.19500
H367        H  0.42453883  0.66341700  0.33533541     0.18300
H368        H  0.25613115  0.63982136  0.32926656     0.18300
F369        F  0.29746300  0.58175316  0.38310961    -0.19500
C370        C  0.34414125  0.60983191  0.17151684    -0.20900
C371        C  0.37403930  0.63200814  0.14015779    -0.08900
C372        C  0.37646779  0.68144888  0.13850477     0.29900
C373        C  0.34885777  0.70817017  0.16780866    -0.20900
C374        C  0.31922352  0.68594211  0.19920262    -0.08900
C375        C  0.31659844  0.63661084  0.20078479     0.29900
F376        F  0.28548320  0.61449280  0.22845455    -0.19500
H377        H  0.34143944  0.57179755  0.17278145     0.18300
H378        H  0.35008825  0.74616420  0.16545267     0.18300
F379        F  0.40370110  0.70399505  0.10716983    -0.19500
C380        C  0.64963033  0.60881859  0.32933656    -0.20900
C381        C  0.61726800  0.63279160  0.35658101    -0.08900
C382        C  0.61653300  0.68234422  0.35689794     0.29900
C383        C  0.64857035  0.70730978  0.33081835    -0.20900
C384        C  0.68071114  0.68324335  0.30365283    -0.08900
C385        C  0.68123123  0.63387660  0.30287093     0.29900
F386        F  0.71319336  0.61010064  0.27768717    -0.19500
H387        H  0.65099426  0.57066711  0.32934420     0.18300
H388        H  0.64823641  0.74537302  0.33180543     0.18300
F389        F  0.58676181  0.70677046  0.38410594    -0.19500
C390        C  0.67149771  0.62131934  0.13790890    -0.20900
C391        C  0.62419601  0.63047573  0.13957564    -0.08900
C392        C  0.60659369  0.66170617  0.17296743     0.29900
C393        C  0.63654750  0.68471198  0.20316586    -0.20900
C394        C  0.68402550  0.67682701  0.19988485    -0.08900
C395        C  0.70127253  0.64468633  0.16748985     0.29900
F396        F  0.74689375  0.63623691  0.16405274    -0.19500
H397        H  0.68582427  0.59708230  0.11259487     0.18300
H398        H  0.62297732  0.71006221  0.22782953     0.18300
F399        F  0.56088306  0.66996487  0.17641580    -0.19500
C400        C  0.63386554  0.31477675  0.30864022    -0.20900
C401        C  0.68173465  0.31850886  0.30975544    -0.08900
C402        C  0.70297042  0.35051815  0.33988066     0.29900
C403        C  0.67629701  0.38008989  0.36723732    -0.20900
C404        C  0.62835697  0.37720304  0.36523732    -0.08900
C405        C  0.60712782  0.34411858  0.33619386     0.29900
F406        F  0.56072439  0.34094352  0.33375901    -0.19500
H407        H  0.61724138  0.28945830  0.28611296     0.18300
H408        H  0.69317298  0.40467200  0.39045245     0.18300
F409        F  0.74922038  0.35394760  0.34225398    -0.19500
C410        C  0.63168334  0.31384956  0.19163973    -0.20900
C411        C  0.67496708  0.32814095  0.20677239    -0.08900
C412        C  0.68997610  0.37428295  0.19803123     0.29900
C413        C  0.66464722  0.40338696  0.16846977    -0.20900
C414        C  0.62329819  0.38716360  0.14916189    -0.08900
C415        C  0.60561801  0.34324430  0.16348520     0.29900
F416        F  0.56405377  0.32764770  0.14881269    -0.19500
H417        H  0.61845584  0.27941126  0.20078419     0.18300
H418        H  0.67827000  0.43767004  0.15940692     0.18300
F419        F  0.73047936  0.38989667  0.21551303    -0.19500
C420        C  0.32921526  0.37829197  0.36575314    -0.20900
C421        C  0.37691284  0.37179580  0.36522739    -0.08900
C422        C  0.39659084  0.33989117  0.33352153     0.29900
C423        C  0.36852213  0.31459312  0.30323015    -0.20900
C424        C  0.32078453  0.32063903  0.30457835    -0.08900
C425        C  0.30125727  0.35245851  0.33607964     0.29900
F426        F  0.25524742  0.35856213  0.33828273    -0.19500
H427        H  0.31332097  0.40256624  0.39004339     0.18300
H428        H  0.38385763  0.28951983  0.27934779     0.18300
F429        F  0.44264539  0.33336605  0.33144706    -0.19500
C430        C  0.32712804  0.36772150  0.20617693    -0.20900
C431        C  0.32762567  0.31861933  0.19990137    -0.08900
C432        C  0.35658819  0.29861416  0.16625279     0.29900
C433        C  0.38555507  0.32705347  0.14030738    -0.20900
C434        C  0.38505658  0.37593913  0.14643143    -0.08900
C435        C  0.35555208  0.39641787  0.17928870     0.29900
F436        F  0.35418387  0.44386657  0.18516455    -0.19500
H437        H  0.30395153  0.38381279  0.23107894     0.18300
H438        H  0.40714947  0.31078682  0.11408551     0.18300
F439        F  0.35681475  0.25174084  0.15781547    -0.19500
C440        C  0.41258428  0.40483108  0.61526748     0.42900
N441        N  0.42364643  0.44847964  0.55593083     0.01800
C442        C  0.61512309  0.45111010  0.91614685    -0.06100
H443        H  0.64458851  0.47908648  0.59510410     0.07300
C444        C  0.55225963  0.62391896  0.58421443    -0.06500
Co445      Co  0.50653823  0.41921731  0.50307930     0.74200
N446        N  0.58712823  0.46064962  0.55135222    -0.25600
Co447      Co  0.58293152  0.51099582  0.99897125     0.74100
C448        C  0.59491839  0.60733259  0.60536648     0.43000
N449        N  0.44432175  0.58670358  0.55070253     0.01400
N450        N  0.57874679  0.56319116  0.54781917     0.01500
N451        N  0.56398299  0.39092052  0.91926888    -0.46500
H452        H  0.47629849  0.35995796  0.59907843     0.07200
N453        N  0.55751122  0.42564934  0.55247646     0.01800
N454        N  0.57621348  0.56090991  0.94696388     0.01500
C455        C  0.58881340  0.60558707  0.88859565     0.43100
N456        N  0.41517975  0.55126886  0.55256119    -0.25100
C457        C  0.44817469  0.38338781  0.91999411    -0.06000
N458        N  0.39519960  0.44134554  0.59115114    -0.46200
N459        N  0.60527629  0.56842759  0.91243981    -0.46400
C460        C  0.40482698  0.39762138  0.89902117     0.42900
N461        N  0.55543768  0.42309262  0.95131700     0.01800
N462        N  0.41271846  0.54781259  0.95180405    -0.25100
N463        N  0.45782730  0.41825254  0.55509765    -0.25600
N464        N  0.44159366  0.58348385  0.94968878     0.01400
H465        H  0.35411571  0.52763015  0.91131032     0.07300
H466        H  0.52431590  0.64999387  0.90370391     0.07300
N467        N  0.58493254  0.45821605  0.95033111    -0.25700
N468        N  0.54504830  0.59403912  0.54868050    -0.25300
N469        N  0.42054114  0.44476223  0.95470540     0.01800
C470        C  0.60048676  0.41344361  0.61156667     0.43200
C471        C  0.38577593  0.55849284  0.58756013    -0.06500
N472        N  0.54212174  0.59128880  0.94739449    -0.25300
H473        H  0.53092881  0.65371904  0.59318976     0.07300
N474        N  0.56444590  0.39654823  0.58754542    -0.46500
H475        H  0.35685753  0.53626032  0.59631184     0.07300
C476        C  0.39478793  0.59515490  0.89361590     0.43000
C477        C  0.45386943  0.38922301  0.59133643    -0.06000
Co478      Co  0.41683809  0.49791530  0.50382293     0.73800
N479        N  0.43615891  0.61918092  0.58252674    -0.46200
C480        C  0.60085817  0.40672231  0.89562695     0.43300
N481        N  0.38951003  0.43552034  0.92260112    -0.46200
Co482      Co  0.49318443  0.59035430  0.99905988     0.73900
C483        C  0.54685898  0.62087320  0.91159039    -0.06500
C484        C  0.61614869  0.45592609  0.58731469    -0.06100
N485        N  0.45493687  0.41476232  0.95414493    -0.25600
N486        N  0.60931290  0.57006361  0.58068459    -0.46400
H487        H  0.64428600  0.47329631  0.90812171     0.07300
C488        C  0.38210332  0.55178798  0.91757429    -0.06500
Cl489      Cl  0.49985289  0.50469424  0.50113658    -0.49500
C490        C  0.39999927  0.60344268  0.60724239     0.43000
H491        H  0.46999751  0.35358205  0.91239674     0.07200
N492        N  0.43191216  0.61302254  0.91547899    -0.46200
C493        C  0.61047563  0.89335866  0.60598232     0.42900
N494        N  0.58471260  0.94014710  0.55351149     0.01800
C495        C  0.38622129  0.07631674  0.56376345    -0.06100
H496        H  0.34767135  0.91629936  0.54544267     0.07300
C497        C  0.43732873  0.91644113  0.87834132    -0.06500
Co498      Co  0.50064974  0.99185471  0.58663292     0.74200
N499        N  0.41591798  0.94437024  0.55183413    -0.25600
Co500      Co  0.41889324  0.99547550  0.49918915     0.74100
C501        C  0.39282348  0.89806620  0.89351402     0.43000
N502        N  0.55641733  0.94287054  0.91366002     0.01400
N503        N  0.41890367  0.94511245  0.94579997     0.01500
N504        N  0.43873900  0.07288619  0.62140558    -0.46500
H505        H  0.54914424  0.90819078  0.65442937     0.07200
N506        N  0.44695939  0.94226028  0.58527815     0.01800
N507        N  0.42149700  0.04713256  0.94721511     0.01500
C508        C  0.39841573  0.09695216  0.89606756     0.43100
N509        N  0.58716912  0.94233369  0.94745663    -0.25100
C510        C  0.56547514  0.07043147  0.62215041    -0.06000
N511        N  0.62006588  0.91303969  0.56437817    -0.46200
N512        N  0.38769410  0.07660706  0.93718637    -0.46400
C513        C  0.60985290  0.08903521  0.60801191     0.42900
N514        N  0.44982729  0.04446982  0.58628909     0.01800
N515        N  0.58875579  0.04336107  0.94988310    -0.25100
N516        N  0.55259241  0.94045076  0.58627626    -0.25600
N517        N  0.55802087  0.04504528  0.91617030     0.01400
H518        H  0.65452647  0.07608884  0.95952216     0.07300
H519        H  0.45931244  0.08056749  0.84758373     0.07300
N520        N  0.41919344  0.04548614  0.55248185    -0.25700
N521        N  0.45094108  0.94521727  0.91296060    -0.25300
N522        N  0.58615241  0.04152433  0.55539406     0.01800
C523        C  0.39104738  0.89873332  0.61015954     0.43200
C524        C  0.62202809  0.91436423  0.93469875    -0.06500
N525        N  0.45353547  0.04620950  0.91450015    -0.25300
H526        H  0.45437574  0.91230424  0.84505579     0.07300
N527        N  0.43311789  0.91591393  0.62097249    -0.46500
H528        H  0.65382246  0.91087419  0.95367839     0.07300
C529        C  0.61145068  0.09322612  0.89428387     0.43000
C530        C  0.56591822  0.91164508  0.62092360    -0.06000
Co531      Co  0.58663014  0.99173582  0.50169162     0.73800
N532        N  0.56946108  0.91719367  0.87713414    -0.46200
C533        C  0.39899124  0.09455474  0.60967213     0.43300
N534        N  0.62087632  0.06948423  0.56662087    -0.46200
Co535      Co  0.50475831  0.99471566  0.91393331     0.73900
C536        C  0.44179458  0.07649799  0.88062652    -0.06500
C537        C  0.37982556  0.91765151  0.56408318    -0.06100
N538        N  0.55357271  0.04112610  0.58757880    -0.25600
N539        N  0.38344847  0.91791153  0.93515303    -0.46400
H540        H  0.35503250  0.08165645  0.54417563     0.07300
C541        C  0.62334074  0.07279422  0.93951600    -0.06500
Cl542      Cl  0.50273868  0.99305539  0.50034377    -0.49500
C543        C  0.61058526  0.89774032  0.88782554     0.43000
H544        H  0.54726939  0.07485750  0.65476157     0.07200
N545        N  0.57048213  0.07414721  0.88211508    -0.46200
C546        C  0.90902302  0.38375849  0.60851485     0.42900
N547        N  0.95315585  0.40852675  0.55424283     0.01800
C548        C  0.08253473  0.61528379  0.55661886    -0.06100
H549        H  0.92322740  0.64860544  0.54150561     0.07300
C550        C  0.91904450  0.55534904  0.88046964    -0.06500
Co551      Co  0.00431068  0.49536237  0.58411626     0.74200
N552        N  0.95531176  0.58122006  0.54991580    -0.25600
Co553      Co  0.00315365  0.57874877  0.49515942     0.74100
C554        C  0.90034796  0.60055031  0.89600024     0.43000
N555        N  0.94924562  0.43690026  0.91519710     0.01400
N556        N  0.95168083  0.57737169  0.94452171     0.01500
N557        N  0.08113599  0.56273424  0.61585251    -0.46500
H558        H  0.92466900  0.44769802  0.65510188     0.07200
N559        N  0.95514500  0.54981769  0.58392238     0.01800
N560        N  0.05135264  0.57616937  0.94056129     0.01500
C561        C  0.09850359  0.59834033  0.88657159     0.43100
N562        N  0.95018142  0.40493305  0.94862276    -0.25100
C563        C  0.08110508  0.42678802  0.61818573    -0.06000
N564        N  0.92617052  0.37297646  0.56625575    -0.46200
N565        N  0.07942333  0.61077629  0.92791414    -0.46400
C566        C  0.09737010  0.38020645  0.60415042     0.42900
N567        N  0.05430459  0.54894460  0.58100276     0.01800
N568        N  0.04883050  0.40365821  0.94588079    -0.25100
N569        N  0.95485201  0.44193610  0.58645387    -0.25600
N570        N  0.04872032  0.43515541  0.91199050     0.01400
H571        H  0.08147488  0.33640120  0.95402176     0.07300
H572        H  0.08136334  0.53296883  0.84202307     0.07300
N573        N  0.05380532  0.57982330  0.54644331    -0.25700
N574        N  0.95053849  0.54373556  0.91263930    -0.25300
N575        N  0.05156186  0.40664216  0.55187034     0.01800
C576        C  0.90960752  0.60496596  0.60818876     0.43200
C577        C  0.92078377  0.37017403  0.93759569    -0.06500
N578        N  0.04976940  0.54204607  0.90925361    -0.25300
H579        H  0.91262284  0.53641306  0.84840572     0.07300
N580        N  0.92868313  0.56290771  0.61950039    -0.46500
H581        H  0.91716987  0.33748206  0.95657936     0.07300
C582        C  0.09464406  0.38062463  0.88770084     0.43000
C583        C  0.92754107  0.42942752  0.62212328    -0.06000
Co584      Co  0.00092091  0.40593894  0.50022748     0.73800
N585        N  0.92102826  0.42523730  0.88086841    -0.46200
C586        C  0.10061850  0.60388789  0.60248050     0.43300
N587        N  0.07749035  0.36994585  0.56297880    -0.46200
Co588      Co  0.99957662  0.48946958  0.91195719     0.73900
C589        C  0.07866630  0.55255791  0.87424257    -0.06500
C590        C  0.92726807  0.61677786  0.56166816    -0.06100
N591        N  0.05266775  0.44033031  0.58387087    -0.25600
N592        N  0.92296118  0.61233459  0.93531953    -0.46400
H593        H  0.08579175  0.64771213  0.53710354     0.07300
C594        C  0.07711121  0.36834063  0.93407198    -0.06500
Cl595      Cl  0.00208052  0.49236623  0.49792752    -0.49500
C596        C  0.90138764  0.38360855  0.89238001     0.43000
H597        H  0.08589985  0.44492923  0.65098558     0.07200
N598        N  0.07537028  0.42254156  0.87646764    -0.46200
C599        C  0.26577884  0.25097395  0.70491462     0.45900
H600        H  0.26985605  0.24816389  0.66652774    -0.03200
C601        C  0.25675748  0.25647669  0.79448409     0.45900
H602        H  0.25129416  0.25969735  0.83256583    -0.03200
C603        C  0.29639960  0.28861798  0.72721831    -0.16800
C604        C  0.21690277  0.26548329  0.71987615    -0.16600
C605        C  0.28009690  0.20543648  0.73048435    -0.17000
C606        C  0.29143271  0.29162474  0.77452679    -0.17000
C607        C  0.21220125  0.26763158  0.76777002    -0.16500
C608        C  0.27657478  0.20837450  0.77872766    -0.16800
C609        C  0.73586906  0.25952953  0.70365024     0.45900
H610        H  0.73254715  0.26112077  0.66534438    -0.03200
C611        C  0.74358560  0.25363816  0.79332219     0.45900
H612        H  0.74611691  0.25148745  0.83191097    -0.03200
C613        C  0.70496525  0.29401846  0.73029068    -0.16800
C614        C  0.72216075  0.21083969  0.72274251    -0.16600
C615        C  0.78442888  0.27181577  0.72062783    -0.17000
C616        C  0.70905648  0.29055877  0.77744785    -0.17000
C617        C  0.72536078  0.20792175  0.77072433    -0.16500
C618        C  0.78854373  0.26908773  0.76875014    -0.16800
C619        C  0.25451758  0.74942211  0.70622085     0.45900
H620        H  0.25789292  0.75336629  0.66789907    -0.03200
C621        C  0.24787362  0.74275838  0.79586116     0.45900
H622        H  0.24460630  0.73935983  0.83432553    -0.03200
C623        C  0.28831767  0.71448065  0.72767226    -0.16800
C624        C  0.26592149  0.79588109  0.73162934    -0.16600
C625        C  0.20739633  0.72979522  0.72195940    -0.17000
C626        C  0.28466473  0.71075682  0.77494167    -0.17000
C627        C  0.26338369  0.79238969  0.77978078    -0.16500
C628        C  0.20380883  0.72742705  0.77014218    -0.16800
C629        C  0.75225063  0.73674458  0.70531183     0.45900
H630        H  0.75449680  0.73259645  0.66683709    -0.03200
C631        C  0.74678711  0.74542607  0.79499970     0.45900
H632        H  0.74401035  0.74903563  0.83349795    -0.03200
C633        C  0.71581705  0.70515291  0.72769985    -0.16800
C634        C  0.79679246  0.72244473  0.73048302    -0.16600
C635        C  0.73729343  0.78669656  0.72056686    -0.17000
C636        C  0.71293410  0.70984861  0.77487565    -0.17000
C637        C  0.79384063  0.72629507  0.77852688    -0.16500
C638        C  0.73472854  0.79130456  0.76861533    -0.16800
C639        C  0.17287218  0.64398884  0.62390155    -0.20900
C640        C  0.12654698  0.63634990  0.63305452    -0.08900
C641        C  0.10531740  0.66215064  0.66898877     0.29900
C642        C  0.13097826  0.69397098  0.69628547    -0.20900
C643        C  0.17854321  0.70009100  0.68892836    -0.08900
C644        C  0.19865445  0.67500370  0.65112751     0.29900
F645        F  0.24355360  0.67870066  0.64006571    -0.19500
H646        H  0.18951155  0.62526022  0.59559915     0.18300
H647        H  0.11370290  0.71337173  0.72366505     0.18300
F648        F  0.05969664  0.65716316  0.67714528    -0.19500
C649        C  0.17264428  0.64628081  0.78723292    -0.20900
C650        C  0.17224111  0.69502698  0.79620142    -0.08900
C651        C  0.14786214  0.71144124  0.83527014     0.29900
C652        C  0.12422876  0.67989380  0.86441689    -0.20900
C653        C  0.12447070  0.63113111  0.85544998    -0.08900
C654        C  0.14900054  0.61466810  0.81626316     0.29900
F655        F  0.15197850  0.56790843  0.80695411    -0.19500
H656        H  0.19297310  0.63238628  0.75873456     0.18300
H657        H  0.10570904  0.69375112  0.89417906     0.18300
F658        F  0.14757010  0.75807839  0.84569197    -0.19500
C659        C  0.15301080  0.27437651  0.83066411    -0.20900
C660        C  0.17628007  0.29530291  0.79317532    -0.08900
C661        C  0.17122783  0.34419499  0.78612151     0.29900
C662        C  0.14378342  0.37120540  0.81624616    -0.20900
C663        C  0.12153241  0.35052228  0.85468581    -0.08900
C664        C  0.12572665  0.30134309  0.86092625     0.29900
F665        F  0.10361255  0.27887675  0.89611450    -0.19500
H666        H  0.15703978  0.23704084  0.83728722     0.18300
H667        H  0.14147302  0.40884468  0.81055952     0.18300
F668        F  0.19572478  0.36664980  0.75251574    -0.19500
C669        C  0.17373448  0.34899427  0.62471425    -0.20900
C670        C  0.12639233  0.34746284  0.63117490    -0.08900
C671        C  0.10793771  0.31569554  0.66394102     0.29900
C672        C  0.13715118  0.28744145  0.69120219    -0.20900
C673        C  0.18522056  0.29048990  0.68637744    -0.08900
C674        C  0.20285101  0.32102636  0.65154144     0.29900
F675        F  0.24837134  0.32645335  0.64436251    -0.19500
H676        H  0.18845558  0.37299143  0.59937269     0.18300
H677        H  0.12225797  0.26400183  0.71689972     0.18300
F678        F  0.06186604  0.31260784  0.67016488    -0.19500
C679        C  0.83206170  0.35481065  0.62719905    -0.20900
C680        C  0.87885811  0.35280459  0.63564217    -0.08900
C681        C  0.89580749  0.32115197  0.66904674     0.29900
C682        C  0.86530555  0.29319316  0.69515199    -0.20900
C683        C  0.81753245  0.29696680  0.68868337    -0.08900
C684        C  0.80166970  0.32740307  0.65291163     0.29900
F685        F  0.75679766  0.33284496  0.64280131    -0.19500
H686        H  0.81876712  0.37850838  0.60088152     0.18300
H687        H  0.87891956  0.26945812  0.72119261     0.18300
F688        F  0.94160622  0.31757358  0.67657779    -0.19500
C689        C  0.83198497  0.34406474  0.78682129    -0.20900
C690        C  0.82280822  0.29640567  0.79699470    -0.08900
C691        C  0.84011405  0.27769364  0.83880637     0.29900
C692        C  0.86550636  0.30598157  0.86958686    -0.20900
C693        C  0.87450561  0.35364019  0.85941497    -0.08900
C694        C  0.85798716  0.37211120  0.81709797     0.29900
F695        F  0.86544658  0.41784772  0.80553114    -0.19500
H696        H  0.81712904  0.36058080  0.75644433     0.18300
H697        H  0.87785065  0.29039716  0.90157351     0.18300
F698        F  0.83151951  0.23218826  0.85048400    -0.19500
C699        C  0.80090582  0.66822720  0.84456386    -0.20900
C700        C  0.82266736  0.69773699  0.81158095    -0.08900
C701        C  0.87089322  0.69644185  0.80863373     0.29900
C702        C  0.89610845  0.66493785  0.83640089    -0.20900
C703        C  0.87379495  0.63443493  0.86772026    -0.08900
C704        C  0.82602698  0.63679339  0.87204127     0.29900
F705        F  0.80351715  0.60802014  0.90223454    -0.19500
H706        H  0.76405668  0.66799267  0.84820233     0.18300
H707        H  0.93312107  0.66401764  0.83317222     0.18300
F708        F  0.89358070  0.72530660  0.77875204    -0.19500
C709        C  0.86284587  0.61641768  0.68149846    -0.20900
C710        C  0.88317307  0.63581783  0.64127319    -0.08900
C711        C  0.87753759  0.68461211  0.63333562     0.29900
C712        C  0.85167037  0.71245474  0.66412566    -0.20900
C713        C  0.83068152  0.69298635  0.70372685    -0.08900
C714        C  0.83632601  0.64426112  0.71194211     0.29900
F715        F  0.81351342  0.62261019  0.74720408    -0.19500
H716        H  0.86599157  0.57907557  0.68850080     0.18300
H717        H  0.84698627  0.74947400  0.65631227     0.18300
F718        F  0.89675972  0.70600002  0.59585242    -0.19500
C719        C  0.71647292  0.15063993  0.83687277    -0.20900
C720        C  0.69646286  0.17570454  0.80007010    -0.08900
C721        C  0.64833151  0.17413453  0.79521141     0.29900
C722        C  0.62135404  0.14693580  0.82558052    -0.20900
C723        C  0.64128550  0.12162876  0.86237549    -0.08900
C724        C  0.68947700  0.12365930  0.86754341     0.29900
F725        F  0.71098813  0.09905732  0.90154648    -0.19500
H726        H  0.75325298  0.15211661  0.84195765     0.18300
H727        H  0.58449958  0.14655625  0.82091560     0.18300
F728        F  0.62698590  0.20037099  0.76229221    -0.19500
C729        C  0.66980571  0.09914674  0.66950728    -0.20900
C730        C  0.64045979  0.11874085  0.63594439    -0.08900
C731        C  0.63920872  0.16741916  0.63000797     0.29900
C732        C  0.66631598  0.19639543  0.65771464    -0.20900
C733        C  0.69532712  0.17771244  0.69237886    -0.08900
C734        C  0.69738021  0.12837348  0.69743268     0.29900
F735        F  0.72630239  0.10844572  0.72868737    -0.19500
H736        H  0.67121721  0.06130350  0.67410878     0.18300
H737        H  0.66355810  0.23374224  0.65200529     0.18300
F738        F  0.61105370  0.18707663  0.59781210    -0.19500
C739        C  0.32139220  0.12438217  0.63394383    -0.20900
C740        C  0.36880128  0.12108711  0.64260352    -0.08900
C741        C  0.38639090  0.14297935  0.68287691     0.29900
C742        C  0.35728534  0.16851271  0.71277268    -0.20900
C743        C  0.30987462  0.17186643  0.70378900    -0.08900
C744        C  0.29235151  0.14936182  0.66405289     0.29900
F745        F  0.24704314  0.15247824  0.65376110    -0.19500
H746        H  0.30642908  0.10765027  0.60369748     0.18300
H747        H  0.37210098  0.18732592  0.74195201     0.18300
F748        F  0.43194364  0.14141172  0.69236706    -0.19500
C749        C  0.35419658  0.16962936  0.88038553    -0.20900
C750        C  0.36535105  0.12370840  0.86762417    -0.08900
C751        C  0.34408307  0.10366995  0.82848134     0.29900
C752        C  0.31242459  0.12985532  0.80224408    -0.20900
C753        C  0.30382049  0.17777003  0.81227213    -0.08900
C754        C  0.32465680  0.19671866  0.85306059     0.29900
F755        F  0.31874631  0.24188033  0.86673026    -0.19500
H756        H  0.36982115  0.18532029  0.91093671     0.18300
H757        H  0.29583930  0.11288317  0.77301277     0.18300
F758        F  0.35385177  0.05873497  0.81570687    -0.19500
C759        C  0.67657206  0.89109682  0.66222380    -0.20900
C760        C  0.64439197  0.86741999  0.63413630    -0.08900
C761        C  0.64600228  0.81840113  0.63125009     0.29900
C762        C  0.67818451  0.79321808  0.65701252    -0.20900
C763        C  0.70883906  0.81595272  0.68768308    -0.08900
C764        C  0.70863041  0.86560537  0.68886901     0.29900
F765        F  0.73917676  0.88929319  0.71576698    -0.19500
H766        H  0.67657325  0.92922228  0.66378143     0.18300
H767        H  0.67780003  0.75555210  0.65344068     0.18300
F768        F  0.61597345  0.79469604  0.60373596    -0.19500
C769        C  0.65688443  0.82853366  0.78331243    -0.20900
C770        C  0.70409475  0.82559144  0.79364886    -0.08900
C771        C  0.72026022  0.84888298  0.83352768     0.29900
C772        C  0.68992824  0.87289992  0.86318556    -0.20900
C773        C  0.64251951  0.87457999  0.85387589    -0.08900
C774        C  0.62655220  0.85338001  0.81255132     0.29900
F775        F  0.58132939  0.85456655  0.80151772    -0.19500
H776        H  0.64286774  0.80943163  0.75395138     0.18300
H777        H  0.70383021  0.88968304  0.89391931     0.18300
F778        F  0.76542019  0.84701280  0.84471406    -0.19500
C779        C  0.33028723  0.89597019  0.83342481    -0.20900
C780        C  0.35855258  0.87234166  0.86540908    -0.08900
C781        C  0.35246392  0.82402334  0.87213425     0.29900
C782        C  0.32005654  0.79926906  0.84600304    -0.20900
C783        C  0.29280296  0.82182707  0.81202678    -0.08900
C784        C  0.29730304  0.87113535  0.80728944     0.29900
F785        F  0.27017272  0.89524168  0.77727792    -0.19500
H786        H  0.33373478  0.93367967  0.82878316     0.18300
H787        H  0.31772097  0.76189032  0.85196590     0.18300
F788        F  0.37859406  0.80044621  0.90349676    -0.19500
C789        C  0.34447704  0.82969751  0.71450734    -0.20900
C790        C  0.29697234  0.82899770  0.70564292    -0.08900
C791        C  0.28068495  0.85282304  0.66613244     0.29900
C792        C  0.31120206  0.87579625  0.63574010    -0.20900
C793        C  0.35885172  0.87567515  0.64394289    -0.08900
C794        C  0.37500626  0.85322187  0.68448622     0.29900
F795        F  0.42053695  0.85203166  0.69407762    -0.19500
H796        H  0.35834110  0.81002934  0.74353465     0.18300
H797        H  0.29729154  0.89328922  0.60543624     0.18300
F798        F  0.23520397  0.85257654  0.65612818    -0.19500
C799        C  0.38776741  0.65742066  0.83354727    -0.20900
C800        C  0.36696743  0.62195112  0.86037825    -0.08900
C801        C  0.31916283  0.61529174  0.85779396     0.29900
C802        C  0.29275750  0.64478287  0.83015407    -0.20900
C803        C  0.31351407  0.68002086  0.80356335    -0.08900
C804        C  0.36125853  0.68611066  0.80487983     0.29900
F805        F  0.38181752  0.72100618  0.78007768    -0.19500
H806        H  0.42445052  0.66329473  0.83528849     0.18300
H807        H  0.25598822  0.64001209  0.82949046     0.18300
F808        F  0.29729762  0.58197915  0.88341749    -0.19500
C809        C  0.34419039  0.60979809  0.67160513    -0.20900
C810        C  0.37409726  0.63197354  0.64025232    -0.08900
C811        C  0.37653635  0.68141436  0.63861217     0.29900
C812        C  0.34890918  0.70813558  0.66789837    -0.20900
C813        C  0.31925117  0.68591102  0.69927149    -0.08900
C814        C  0.31663678  0.63657900  0.70086542     0.29900
F815        F  0.28551664  0.61446303  0.72853186    -0.19500
H816        H  0.34148611  0.57176378  0.67286530     0.18300
H817        H  0.35014063  0.74612884  0.66553870     0.18300
F818        F  0.40379104  0.70396341  0.60729849    -0.19500
C819        C  0.64953338  0.60874258  0.82921337    -0.20900
C820        C  0.61719882  0.63270465  0.85649806    -0.08900
C821        C  0.61653107  0.68225775  0.85691811     0.29900
C822        C  0.64859548  0.70723566  0.83088262    -0.20900
C823        C  0.68070568  0.68318137  0.80366934    -0.08900
C824        C  0.68117119  0.63381166  0.80280444     0.29900
F825        F  0.71311000  0.61003859  0.77758708    -0.19500
H826        H  0.65085065  0.57058914  0.82915152     0.18300
H827        H  0.64830349  0.74529926  0.83193544     0.18300
F828        F  0.58680000  0.70666496  0.88418829    -0.19500
C829        C  0.67147233  0.62117248  0.63804163    -0.20900
C830        C  0.62417667  0.63036816  0.63968683    -0.08900
C831        C  0.60658619  0.66164991  0.67303656     0.29900
C832        C  0.63654849  0.68467690  0.70320486    -0.20900
C833        C  0.68402230  0.67676808  0.69992765    -0.08900
C834        C  0.70125697  0.64456668  0.66758825     0.29900
F835        F  0.74687303  0.63607976  0.66417697    -0.19500
H836        H  0.68578868  0.59688973  0.61276478     0.18300
H837        H  0.62299067  0.71006440  0.72783835     0.18300
F838        F  0.56088079  0.66994563  0.67646738    -0.19500
C839        C  0.63380907  0.31494949  0.80850228    -0.20900
C840        C  0.68169352  0.31837918  0.80992747    -0.08900
C841        C  0.70294008  0.34999098  0.84045898     0.29900
C842        C  0.67627443  0.37957041  0.86781546    -0.20900
C843        C  0.62833654  0.37706092  0.86541408    -0.08900
C844        C  0.60708328  0.34430176  0.83604499     0.29900
F845        F  0.56067758  0.34148620  0.83326399    -0.19500
H846        H  0.61716378  0.28987092  0.78573344     0.18300
H847        H  0.69313586  0.40387905  0.89132346     0.18300
F848        F  0.74919677  0.35304118  0.84322198    -0.19500
C849        C  0.63171987  0.31369885  0.69151762    -0.20900
C850        C  0.67487001  0.32813921  0.70690273    -0.08900
C851        C  0.68971682  0.37437722  0.69836169     0.29900
C852        C  0.66440240  0.40344474  0.66874460    -0.20900
C853        C  0.62321530  0.38708563  0.64918890    -0.08900
C854        C  0.60565820  0.34305077  0.66331802     0.29900
F855        F  0.56423471  0.32729642  0.64840298    -0.19500
H856        H  0.61859062  0.27918247  0.70051468     0.18300
H857        H  0.67791647  0.43781438  0.65983563     0.18300
F858        F  0.73008505  0.39011544  0.71605561    -0.19500
C859        C  0.32925774  0.37830727  0.86567589    -0.20900
C860        C  0.37694149  0.37170439  0.86524922    -0.08900
C861        C  0.39660694  0.33970694  0.83362229     0.29900
C862        C  0.36853527  0.31443152  0.80331052    -0.20900
C863        C  0.32080959  0.32058570  0.80457112    -0.08900
C864        C  0.30129846  0.35249466  0.83599010     0.29900
F865        F  0.25530052  0.35871322  0.83809480    -0.19500
H866        H  0.31336912  0.40265522  0.88989730     0.18300
H867        H  0.38385355  0.28929385  0.77948289     0.18300
F868        F  0.44264953  0.33306825  0.83164238    -0.19500
C869        C  0.32723673  0.36767754  0.70622770    -0.20900
C870        C  0.32763166  0.31858346  0.69987400    -0.08900
C871        C  0.35648193  0.29858350  0.66611715     0.29900
C872        C  0.38543915  0.32701570  0.64014994    -0.20900
C873        C  0.38505018  0.37588948  0.64636725    -0.08900
C874        C  0.35565961  0.39636561  0.67932969     0.29900
F875        F  0.35440573  0.44380501  0.68530436    -0.19500
H876        H  0.30413893  0.38377630  0.73119968     0.18300
H877        H  0.40694554  0.31075928  0.61384651     0.18300
F878        F  0.35660826  0.25172507  0.65759093    -0.19500
loop_ 
_geom_bond_atom_site_label_1 
_geom_bond_atom_site_label_2 
_geom_bond_distance 
_geom_bond_site_symmetry_2 
_ccdc_geom_bond_type 
C1           N19   1.347       .  A
C1           C38   1.454       .  S
C1          C434   1.453       .  S
N2           N19   1.321       .  A
N2           N24   1.316       .  A
N2          Co39   2.061       .  S
C3           N28   1.331       .  A
C3           C41   1.451       .  S
C3           H48   1.082       .  S
H4           C45   1.081       .  S
C5           N29   1.342       .  A
C5            C9   1.464       .  S
C5           H34   1.081       .  S
Co6          N24   2.057       .  S
Co6          N14   2.064       .  S
Co6         N485   2.065   1_554  S
Co6         N461   2.060   1_554  S
Co6         Cl50   2.435       .  S
N7           C45   1.343       .  A
N7           N14   1.316       .  A
N7         Co447   2.077   1_554  S
Co8          N28   2.047       .  S
Co8          N15   2.068       .  S
Co8         N446   2.078       .  S
Co8         N450   2.041       .  S
Co8        Cl489   2.430       .  S
C9           N47   1.340       .  A
C9          C391   1.458       .  S
N10          N17   1.317       .  A
N10          N40   1.318       .  A
N10        Co482   2.054   1_554  S
N11          N29   1.317       .  A
N11          N47   1.313       .  A
N11        Co447   2.042   1_554  S
N12          C41   1.346       .  A
N12          N22   1.319       .  A
H13          C38   1.081       .  S
N14          N35   1.318       .  A
N15          N33   1.317       .  A
N15          N20   1.319       .  A
C16          N20   1.347       .  A
C16          C44   1.455       .  S
C16         C381   1.456       .  S
N17          C32   1.334       .  A
N17         Co39   2.061       .  S
C18          N46   1.338       .  A
C18          C21   1.459       .  S
C18          H52   1.081       .  S
C21          N42   1.346       .  A
C21         C421   1.463       .  S
N22          N28   1.316       .  A
N22        Co445   2.060       .  S
N23          C49   1.334       .  A
N23          N25   1.317       .  A
N23        Co478   2.062       .  S
N24          C38   1.331       .  A
N25          N53   1.322       .  A
N25         Co43   2.078       .  S
H26          C49   1.080       .  S
H27          C44   1.081       .  S
N29        Co482   2.080   1_554  S
N30          N42   1.319       .  A
N30          N46   1.317       .  A
N30        Co478   2.066       .  S
C31          N35   1.346       .  A
C31          C45   1.464       .  S
C31         C414   1.473       .  S
C32          C51   1.455       .  S
C32          H36   1.081       .  S
N33          C44   1.334       .  A
N33         Co43   2.054       .  S
C37          N53   1.350       .  A
C37          C49   1.457       .  S
C37         C361   1.467       .  S
Co39        N462   2.062   1_554  S
Co39        N469   2.066   1_554  S
Co39        Cl50   2.429       .  S
N40          C51   1.345       .  A
C41         C404   1.449       .  S
Co43        N449   2.054       .  S
Co43        N468   2.080       .  S
Co43       Cl489   2.441       .  S
N46        Co445   2.065       .  S
Cl50       Co447   2.430   1_554  S
Cl50       Co482   2.441   1_554  S
C51         C371   1.456       .  S
C54          N72   1.346       .  A
C54          C91   1.463       .  S
C54         C321   1.476       .  S
N55          N72   1.325       .  A
N55          N77   1.325       .  A
N55         Co92   2.088       .  S
C56          N81   1.340       .  A
C56          C94   1.463       .  S
C56         H101   1.081       .  S
H57          C98   1.081       .  S
C58          N82   1.346       .  A
C58          C62   1.463       .  S
C58          H87   1.082       .  S
Co59         N77   2.104       .  S
Co59         N67   2.104       .  S
Co59         N99   2.081   1_565  S
Co59         N75   2.105   1_565  S
Co59       Cl103   2.476       .  S
N60          C98   1.342       .  A
N60          N67   1.322       .  A
N60         Co61   2.096   1_554  S
Co61         N81   2.085   1_566  S
Co61        N503   2.092       .  S
Co61        N507   2.093   1_565  S
Co61       Cl103   2.446   1_556  S
C62         N100   1.348       .  A
C62         C341   1.477       .  S
N63          N70   1.322       .  A
N63          N93   1.331       .  A
N63         Co96   2.107       .  S
N64          N82   1.325       .  A
N64         N100   1.326       .  A
N64        Co500   2.092       .  S
N65          C94   1.356       .  A
N65          N75   1.329       .  A
H66          C91   1.082       .  S
N67          N88   1.330       .  A
N68          N86   1.322       .  A
N68          N73   1.326       .  A
N68        Co500   2.093   1_545  S
C69          N73   1.349       .  A
C69          C97   1.460       .  S
C69         C311   1.476       .  S
N70          C85   1.340       .  A
N70        Co531   2.093       .  S
C71          N99   1.340       .  A
C71          C74   1.454       .  S
C71         H105   1.082       .  S
C74          N95   1.348       .  A
C74         C291   1.466       .  S
N75          N81   1.320       .  A
N76         C102   1.341       .  A
N76          N78   1.321       .  A
N76        Co531   2.087   1_545  S
N77          C91   1.346       .  A
N78         N106   1.329       .  A
N78         Co96   2.110   1_545  S
H79         C102   1.080       .  S
H80          C97   1.082       .  S
N82         Co96   2.105       .  S
N83          N95   1.326       .  A
N83          N99   1.323       .  A
N83         Co92   2.090   1_545  S
C84          N88   1.356       .  A
C84          C98   1.465       .  S
C84         C354   1.498       .  S
C85         C104   1.464       .  S
C85          H89   1.081       .  S
N86          C97   1.343       .  A
N86         Co96   2.091   1_545  S
C90         N106   1.357       .  A
C90         C102   1.464       .  S
C90         C284   1.496       .  S
Co92        N509   2.093   1_554  S
Co92        N515   2.087   1_564  S
Co92       Cl103   2.447       .  S
N93         C104   1.357       .  A
C94         C301   1.493       .  S
Co96       Cl542   2.478       .  S
Cl103      Co535   2.478   1_554  S
C104        C334   1.498       .  S
C107        N125   1.345       .  A
C107        C144   1.457       .  S
C107        C241   1.465       .  S
N108        N125   1.324       .  A
N108        N130   1.324       .  A
N108       Co145   2.082   1_655  S
C109        N134   1.341       .  A
C109        C147   1.455       .  S
C109        H154   1.082       .  S
H110        C151   1.080       .  S
C111        N135   1.345       .  A
C111        C115   1.463       .  S
C111        H140   1.082       .  S
Co112       N130   2.092   1_455  S
Co112       N120   2.110   1_455  S
Co112       N152   2.106       .  S
Co112       N128   2.107       .  S
Co112      Cl156   2.475   1_554  S
N113        C151   1.342       .  A
N113        N120   1.322       .  A
N113       Co114   2.099   1_654  S
Co114       N134   2.088   1_556  S
Co114       N556   2.090   1_455  S
Co114       N560   2.104       .  S
Co114      Cl156   2.453       .  S
C115        N153   1.350       .  A
C115        C264   1.480       .  S
N116        N123   1.321       .  A
N116        N146   1.326       .  A
N116       Co149   2.093       .  S
N117        N135   1.322       .  A
N117        N153   1.327       .  A
N117       Co553   2.090   1_655  S
N118        C147   1.353       .  A
N118        N128   1.329       .  A
H119        C144   1.082       .  S
N120        N141   1.331       .  A
N121        N139   1.321       .  A
N121        N126   1.328       .  A
N121       Co553   2.104       .  S
C122        N126   1.355       .  A
C122        C150   1.465       .  S
C122        C214   1.494       .  S
N123        C138   1.344       .  A
N123       Co584   2.097   1_655  S
C124        N152   1.345       .  A
C124        C127   1.461       .  S
C124        H158   1.081       .  S
C127        N148   1.348       .  A
C127        C231   1.479       .  S
N128        N134   1.324       .  A
N129        C155   1.342       .  A
N129        N131   1.321       .  A
N129       Co584   2.090       .  S
N130        C144   1.342       .  A
N131        N159   1.329       .  A
N131       Co149   2.106   1_455  S
H132        C155   1.080       .  S
H133        C150   1.081       .  S
N135       Co149   2.103       .  S
N136        N148   1.327       .  A
N136        N152   1.325       .  A
N136       Co145   2.094       .  S
C137        N141   1.358       .  A
C137        C151   1.468       .  S
C137        C271   1.503       .  S
C138        C157   1.467       .  S
C138        H142   1.081       .  S
N139        C150   1.343       .  A
N139       Co149   2.090   1_455  S
C143        N159   1.356       .  A
C143        C155   1.466       .  S
C143        C224   1.496       .  S
Co145       N562   2.097   1_454  S
Co145       N568   2.090   1_554  S
Co145      Cl156   2.454   1_554  S
N146        C157   1.353       .  A
C147        C201   1.480       .  S
Co149      Cl595   2.469   1_655  S
Cl156      Co588   2.469   1_455  S
C157        C254   1.494       .  S
C160        H161   1.110       .  S
C160        C166   1.545       .  S
C160        C165   1.544       .  S
C160        C164   1.532       .  S
C162        H163   1.107       .  S
C162        C168   1.543       .  S
C162        C167   1.530       .  S
C162        C169   1.550       .  S
C164        C167   1.367       .  D
C164        C431   1.470       .  S
C165        C168   1.382       .  D
C165        C234   1.513       .  S
C166        C169   1.390       .  D
C166        C304   1.499       .  S
C167        C424   1.467       .  S
C168        C221   1.497       .  S
C169        C314   1.523       .  S
C170        H171   1.104       .  S
C170        C176   1.538       .  S
C170        C175   1.539       .  S
C170        C174   1.534       .  S
C172        H173   1.111       .  S
C172        C178   1.545       .  S
C172        C177   1.525       .  S
C172        C179   1.550       .  S
C174        C177   1.362       .  D
C174        C411   1.471       .  S
C175        C178   1.382       .  D
C175        C294   1.502       .  S
C176        C179   1.388       .  D
C176        C244   1.508       .  S
C177        C401   1.458       .  S
C178        C281   1.500       .  S
C179        C251   1.502       .  S
C180        H181   1.109       .  S
C180        C186   1.548       .  S
C180        C185   1.543       .  S
C180        C184   1.530       .  S
C182        H183   1.111       .  S
C182        C188   1.549       .  S
C182        C187   1.528       .  S
C182        C189   1.545       .  S
C184        C187   1.364       .  D
C184        C374   1.460       .  S
C185        C188   1.387       .  D
C185        C351   1.501       .  S
C186        C189   1.387       .  D
C186        C204   1.522       .  S
C187        C364   1.466       .  S
C188        C344   1.513       .  S
C189        C211   1.499       .  S
C190        H191   1.111       .  S
C190        C196   1.547       .  S
C190        C195   1.543       .  S
C190        C194   1.529       .  S
C192        H193   1.112       .  S
C192        C198   1.549       .  S
C192        C197   1.525       .  S
C192        C199   1.548       .  S
C194        C197   1.362       .  D
C194        C394   1.464       .  S
C195        C198   1.385       .  D
C195        C274   1.504       .  S
C196        C199   1.386       .  D
C196        C324   1.508       .  S
C197        C384   1.460       .  S
C198        C261   1.507       .  S
C199        C331   1.503       .  S
C200        H207   1.084       .  S
C200        C201   1.392       .  A
C200        C205   1.397       .  A
C201        C202   1.407       .  A
C202        C203   1.410       .  A
C202        F209   1.357       .  S
C203        H208   1.082       .  S
C203        C204   1.413       .  A
C204        C205   1.422       .  A
C205        F206   1.350       .  S
C210        H217   1.083       .  S
C210        C211   1.407       .  A
C210        C215   1.403       .  A
C211        C212   1.405       .  A
C212        C213   1.404       .  A
C212        F219   1.357       .  S
C213        H218   1.083       .  S
C213        C214   1.408       .  A
C214        C215   1.410       .  A
C215        F216   1.357       .  S
C220        H227   1.083       .  S
C220        C221   1.402       .  A
C220        C225   1.403       .  A
C221        C222   1.411       .  A
C222        C223   1.404       .  A
C222        F229   1.357       .  S
C223        H228   1.083       .  S
C223        C224   1.406       .  A
C224        C225   1.413       .  A
C225        F226   1.355       .  S
C230        H237   1.084       .  S
C230        C231   1.393       .  A
C230        C235   1.396       .  A
C231        C232   1.408       .  A
C232        C233   1.409       .  A
C232        F239   1.357       .  S
C233        H238   1.083       .  S
C233        C234   1.410       .  A
C234        C235   1.418       .  A
C235        F236   1.351       .  S
C240        H247   1.084       .  S
C240        C241   1.388       .  A
C240        C245   1.389       .  A
C241        C242   1.405       .  A
C242        C243   1.406       .  A
C242        F249   1.357       .  S
C243        H248   1.083       .  S
C243        C244   1.410       .  A
C244        C245   1.421       .  A
C245        F246   1.350       .  S
C250        H257   1.082       .  S
C250        C251   1.409       .  A
C250        C255   1.401       .  A
C251        C252   1.407       .  A
C252        C253   1.405       .  A
C252        F259   1.357       .  S
C253        H258   1.082       .  S
C253        C254   1.408       .  A
C254        C255   1.409       .  A
C255        F256   1.357       .  S
C260        H267   1.079       .  S
C260        C261   1.413       .  A
C260        C265   1.400       .  A
C261        C262   1.409       .  A
C262        C263   1.407       .  A
C262        F269   1.356       .  S
C263        H268   1.083       .  S
C263        C264   1.406       .  A
C264        C265   1.400       .  A
C265        F266   1.358       .  S
C270        H277   1.083       .  S
C270        C271   1.408       .  A
C270        C275   1.408       .  A
C271        C272   1.414       .  A
C272        C273   1.404       .  A
C272        F279   1.355       .  S
C273        H278   1.083       .  S
C273        C274   1.402       .  A
C274        C275   1.413       .  A
C275        F276   1.356       .  S
C280        H287   1.083       .  S
C280        C281   1.402       .  A
C280        C285   1.405       .  A
C281        C282   1.411       .  A
C282        C283   1.403       .  A
C282        F289   1.356       .  S
C283        H288   1.083       .  S
C283        C284   1.405       .  A
C284        C285   1.414       .  A
C285        F286   1.356       .  S
C290        H297   1.083       .  S
C290        C291   1.405       .  A
C290        C295   1.406       .  A
C291        C292   1.393       .  A
C292        C293   1.390       .  A
C292        F299   1.358       .  S
C293        H298   1.076       .  S
C293        C294   1.411       .  A
C294        C295   1.409       .  A
C295        F296   1.357       .  S
C300        H307   1.081       .  S
C300        C301   1.408       .  A
C300        C305   1.401       .  A
C301        C302   1.409       .  A
C302        C303   1.406       .  A
C302        F309   1.357       .  S
C303        H308   1.083       .  S
C303        C304   1.410       .  A
C304        C305   1.403       .  A
C305        F306   1.357       .  S
C310        H317   1.084       .  S
C310        C311   1.392       .  A
C310        C315   1.398       .  A
C311        C312   1.404       .  A
C312        C313   1.406       .  A
C312        F319   1.357       .  S
C313        H318   1.082       .  S
C313        C314   1.413       .  A
C314        C315   1.424       .  A
C315        F316   1.351       .  S
C320        H327   1.083       .  S
C320        C321   1.408       .  A
C320        C325   1.410       .  A
C321        C322   1.395       .  A
C322        C323   1.394       .  A
C322        F329   1.358       .  S
C323        H328   1.074       .  S
C323        C324   1.411       .  A
C324        C325   1.410       .  A
C325        F326   1.357       .  S
C330        H337   1.082       .  S
C330        C331   1.411       .  A
C330        C335   1.407       .  A
C331        C332   1.403       .  A
C332        C333   1.403       .  A
C332        F339   1.357       .  S
C333        H338   1.081       .  S
C333        C334   1.409       .  A
C334        C335   1.409       .  A
C335        F336   1.357       .  S
C340        H347   1.083       .  S
C340        C341   1.406       .  A
C340        C345   1.409       .  A
C341        C342   1.396       .  A
C342        C343   1.396       .  A
C342        F349   1.358       .  S
C343        H348   1.077       .  S
C343        C344   1.413       .  A
C344        C345   1.412       .  A
C345        F346   1.357       .  S
C350        H357   1.082       .  S
C350        C351   1.409       .  A
C350        C355   1.405       .  A
C351        C352   1.404       .  A
C352        C353   1.404       .  A
C352        F359   1.357       .  S
C353        H358   1.082       .  S
C353        C354   1.410       .  A
C354        C355   1.409       .  A
C355        F356   1.357       .  S
C360        H367   1.083       .  S
C360        C361   1.404       .  A
C360        C365   1.394       .  A
C361        C362   1.408       .  A
C362        C363   1.388       .  A
C362        F369   1.355       .  S
C363        H368   1.080       .  S
C363        C364   1.395       .  A
C364        C365   1.403       .  A
C365        F366   1.358       .  S
C370        H377   1.083       .  S
C370        C371   1.400       .  A
C370        C375   1.387       .  A
C371        C372   1.406       .  A
C372        C373   1.388       .  A
C372        F379   1.358       .  S
C373        H378   1.081       .  S
C373        C374   1.397       .  A
C374        C375   1.403       .  A
C375        F376   1.357       .  S
C380        H387   1.084       .  S
C380        C381   1.400       .  A
C380        C385   1.388       .  A
C381        C382   1.407       .  A
C382        C383   1.389       .  A
C382        F389   1.357       .  S
C383        H388   1.081       .  S
C383        C384   1.396       .  A
C384        C385   1.402       .  A
C385        F386   1.358       .  S
C390        H397   1.083       .  S
C390        C391   1.404       .  A
C390        C395   1.384       .  A
C391        C392   1.401       .  A
C392        C393   1.393       .  A
C392        F399   1.357       .  S
C393        H398   1.083       .  S
C393        C394   1.405       .  A
C394        C395   1.395       .  A
C395        F396   1.355       .  S
C400        H407   1.081       .  S
C400        C401   1.400       .  A
C400        C405   1.387       .  A
C401        C402   1.398       .  A
C402        C403   1.387       .  A
C402        F409   1.354       .  S
C403        H408   1.083       .  S
C403        C404   1.401       .  A
C404        C405   1.400       .  A
C405        F406   1.358       .  S
C410        H417   1.082       .  S
C410        C411   1.395       .  A
C410        C415   1.390       .  A
C411        C412   1.403       .  A
C412        C413   1.397       .  A
C412        F419   1.358       .  S
C413        H418   1.082       .  S
C413        C414   1.405       .  A
C414        C415   1.409       .  A
C415        F416   1.357       .  S
C420        H427   1.083       .  S
C420        C421   1.403       .  A
C420        C425   1.388       .  A
C421        C422   1.405       .  A
C422        C423   1.393       .  A
C422        F429   1.357       .  S
C423        H428   1.084       .  S
C423        C424   1.403       .  A
C424        C425   1.398       .  A
C425        F426   1.354       .  S
C430        H437   1.083       .  S
C430        C431   1.405       .  A
C430        C435   1.393       .  A
C431        C432   1.401       .  A
C432        C433   1.383       .  A
C432        F439   1.352       .  S
C433        H438   1.083       .  S
C433        C434   1.399       .  A
C434        C435   1.401       .  A
C435        F436   1.358       .  S
C440        N458   1.347       .  A
C440        C477   1.454       .  S
C440        C873   1.453       .  S
N441        N458   1.321       .  A
N441        N463   1.316       .  A
N441       Co478   2.061       .  S
C442        N467   1.331       .  A
C442        C480   1.451       .  S
C442        H487   1.082       .  S
H443        C484   1.081       .  S
C444        N468   1.342       .  A
C444        C448   1.464       .  S
C444        H473   1.081       .  S
Co445       N463   2.057       .  S
Co445       N453   2.064       .  S
Co445      Cl489   2.435       .  S
N446        C484   1.343       .  A
N446        N453   1.316       .  A
Co447       N467   2.047       .  S
Co447       N454   2.068       .  S
C448        N486   1.340       .  A
C448        C830   1.458       .  S
N449        N456   1.317       .  A
N449        N479   1.318       .  A
N450        N468   1.317       .  A
N450        N486   1.313       .  A
N451        C480   1.346       .  A
N451        N461   1.319       .  A
H452        C477   1.081       .  S
N453        N474   1.318       .  A
N454        N472   1.317       .  A
N454        N459   1.319       .  A
C455        N459   1.347       .  A
C455        C483   1.455       .  S
C455        C820   1.456       .  S
N456        C471   1.334       .  A
N456       Co478   2.061       .  S
C457        N485   1.338       .  A
C457        C460   1.459       .  S
C457        H491   1.081       .  S
C460        N481   1.346       .  A
C460        C860   1.464       .  S
N461        N467   1.316       .  A
N462        C488   1.334       .  A
N462        N464   1.317       .  A
N463        C477   1.332       .  A
N464        N492   1.322       .  A
N464       Co482   2.078       .  S
H465        C488   1.080       .  S
H466        C483   1.081       .  S
N469        N481   1.319       .  A
N469        N485   1.317       .  A
C470        N474   1.346       .  A
C470        C484   1.464       .  S
C470        C853   1.473       .  S
C471        C490   1.455       .  S
C471        H475   1.081       .  S
N472        C483   1.334       .  A
N472       Co482   2.054       .  S
C476        N492   1.350       .  A
C476        C488   1.457       .  S
C476        C800   1.467       .  S
Co478      Cl489   2.429       .  S
N479        C490   1.345       .  A
C480        C843   1.449       .  S
C490        C810   1.456       .  S
C493        N511   1.346       .  A
C493        C530   1.463       .  S
C493        C760   1.476       .  S
N494        N511   1.325       .  A
N494        N516   1.325       .  A
N494       Co531   2.088       .  S
C495        N520   1.340       .  A
C495        C533   1.463       .  S
C495        H540   1.081       .  S
H496        C537   1.081       .  S
C497        N521   1.346       .  A
C497        C501   1.463       .  S
C497        H526   1.082       .  S
Co498       N516   2.104       .  S
Co498       N506   2.104       .  S
Co498       N538   2.081   1_565  S
Co498       N514   2.105   1_565  S
Co498      Cl542   2.476       .  S
N499        C537   1.342       .  A
N499        N506   1.322       .  A
N499       Co500   2.096       .  S
Co500       N520   2.085   1_565  S
Co500      Cl542   2.446       .  S
C501        N539   1.348       .  A
C501        C780   1.477       .  S
N502        N509   1.322       .  A
N502        N532   1.331       .  A
N502       Co535   2.107       .  S
N503        N521   1.325       .  A
N503        N539   1.326       .  A
N504        C533   1.356       .  A
N504        N514   1.329       .  A
H505        C530   1.082       .  S
N506        N527   1.330       .  A
N507        N525   1.322       .  A
N507        N512   1.326       .  A
C508        N512   1.349       .  A
C508        C536   1.460       .  S
C508        C750   1.476       .  S
N509        C524   1.341       .  A
C510        N538   1.340       .  A
C510        C513   1.454       .  S
C510        H544   1.082       .  S
C513        N534   1.348       .  A
C513        C730   1.466       .  S
N514        N520   1.320       .  A
N515        C541   1.341       .  A
N515        N517   1.321       .  A
N516        C530   1.346       .  A
N517        N545   1.329       .  A
N517       Co535   2.110   1_545  S
H518        C541   1.080       .  S
H519        C536   1.082       .  S
N521       Co535   2.105       .  S
N522        N534   1.326       .  A
N522        N538   1.323       .  A
N522       Co531   2.090   1_545  S
C523        N527   1.356       .  A
C523        C537   1.465       .  S
C523        C793   1.497       .  S
C524        C543   1.464       .  S
C524        H528   1.081       .  S
N525        C536   1.343       .  A
N525       Co535   2.091   1_545  S
C529        N545   1.357       .  A
C529        C541   1.464       .  S
C529        C723   1.496       .  S
Co531      Cl542   2.447       .  S
N532        C543   1.357       .  A
C533        C740   1.493       .  S
C543        C773   1.498       .  S
C546        N564   1.345       .  A
C546        C583   1.457       .  S
C546        C680   1.465       .  S
N547        N564   1.324       .  A
N547        N569   1.324       .  A
N547       Co584   2.082   1_655  S
C548        N573   1.341       .  A
C548        C586   1.455       .  S
C548        H593   1.082       .  S
H549        C590   1.080       .  S
C550        N574   1.345       .  A
C550        C554   1.463       .  S
C550        H579   1.082       .  S
Co551       N569   2.092   1_455  S
Co551       N559   2.110   1_455  S
Co551       N591   2.106       .  S
Co551       N567   2.107       .  S
Co551      Cl595   2.475       .  S
N552        C590   1.342       .  A
N552        N559   1.322       .  A
N552       Co553   2.099   1_655  S
Co553       N573   2.087       .  S
Co553      Cl595   2.453       .  S
C554        N592   1.350       .  A
C554        C703   1.480       .  S
N555        N562   1.321       .  A
N555        N585   1.326       .  A
N555       Co588   2.093       .  S
N556        N574   1.322       .  A
N556        N592   1.327       .  A
N557        C586   1.353       .  A
N557        N567   1.329       .  A
H558        C583   1.082       .  S
N559        N580   1.331       .  A
N560        N578   1.321       .  A
N560        N565   1.328       .  A
C561        N565   1.355       .  A
C561        C589   1.465       .  S
C561        C653   1.494       .  S
N562        C577   1.344       .  A
C563        N591   1.345       .  A
C563        C566   1.461       .  S
C563        H597   1.081       .  S
C566        N587   1.348       .  A
C566        C670   1.479       .  S
N567        N573   1.324       .  A
N568        C594   1.342       .  A
N568        N570   1.321       .  A
N569        C583   1.342       .  A
N570        N598   1.329       .  A
N570       Co588   2.106   1_455  S
H571        C594   1.080       .  S
H572        C589   1.081       .  S
N574       Co588   2.103       .  S
N575        N587   1.327       .  A
N575        N591   1.325       .  A
N575       Co584   2.094       .  S
C576        N580   1.358       .  A
C576        C590   1.468       .  S
C576        C710   1.503       .  S
C577        C596   1.467       .  S
C577        H581   1.081       .  S
N578        C589   1.342       .  A
N578       Co588   2.090   1_455  S
C582        N598   1.356       .  A
C582        C594   1.466       .  S
C582        C663   1.496       .  S
Co584      Cl595   2.454       .  S
N585        C596   1.353       .  A
C586        C640   1.480       .  S
C596        C693   1.494       .  S
C599        H600   1.110       .  S
C599        C605   1.545       .  S
C599        C604   1.544       .  S
C599        C603   1.532       .  S
C601        H602   1.107       .  S
C601        C607   1.543       .  S
C601        C606   1.530       .  S
C601        C608   1.550       .  S
C603        C606   1.367       .  D
C603        C870   1.471       .  S
C604        C607   1.381       .  D
C604        C673   1.513       .  S
C605        C608   1.390       .  D
C605        C743   1.499       .  S
C606        C863   1.467       .  S
C607        C660   1.497       .  S
C608        C753   1.523       .  S
C609        H610   1.104       .  S
C609        C615   1.538       .  S
C609        C614   1.539       .  S
C609        C613   1.534       .  S
C611        H612   1.111       .  S
C611        C617   1.544       .  S
C611        C616   1.525       .  S
C611        C618   1.549       .  S
C613        C616   1.362       .  D
C613        C850   1.471       .  S
C614        C617   1.382       .  D
C614        C733   1.502       .  S
C615        C618   1.388       .  D
C615        C683   1.508       .  S
C616        C840   1.458       .  S
C617        C720   1.500       .  S
C618        C690   1.502       .  S
C619        H620   1.109       .  S
C619        C625   1.548       .  S
C619        C624   1.543       .  S
C619        C623   1.530       .  S
C621        H622   1.111       .  S
C621        C627   1.549       .  S
C621        C626   1.528       .  S
C621        C628   1.545       .  S
C623        C626   1.364       .  D
C623        C813   1.460       .  S
C624        C627   1.386       .  D
C624        C790   1.501       .  S
C625        C628   1.387       .  D
C625        C643   1.522       .  S
C626        C803   1.466       .  S
C627        C783   1.513       .  S
C628        C650   1.499       .  S
C629        H630   1.112       .  S
C629        C635   1.547       .  S
C629        C634   1.543       .  S
C629        C633   1.529       .  S
C631        H632   1.112       .  S
C631        C637   1.549       .  S
C631        C636   1.525       .  S
C631        C638   1.548       .  S
C633        C636   1.362       .  D
C633        C833   1.464       .  S
C634        C637   1.385       .  D
C634        C713   1.504       .  S
C635        C638   1.386       .  D
C635        C763   1.508       .  S
C636        C823   1.460       .  S
C637        C700   1.507       .  S
C638        C770   1.503       .  S
C639        H646   1.084       .  S
C639        C640   1.392       .  A
C639        C644   1.396       .  A
C640        C641   1.407       .  A
C641        C642   1.410       .  A
C641        F648   1.357       .  S
C642        H647   1.082       .  S
C642        C643   1.413       .  A
C643        C644   1.422       .  A
C644        F645   1.350       .  S
C649        H656   1.083       .  S
C649        C650   1.407       .  A
C649        C654   1.403       .  A
C650        C651   1.405       .  A
C651        C652   1.404       .  A
C651        F658   1.357       .  S
C652        H657   1.083       .  S
C652        C653   1.408       .  A
C653        C654   1.410       .  A
C654        F655   1.357       .  S
C659        H666   1.083       .  S
C659        C660   1.402       .  A
C659        C664   1.403       .  A
C660        C661   1.411       .  A
C661        C662   1.404       .  A
C661        F668   1.357       .  S
C662        H667   1.083       .  S
C662        C663   1.406       .  A
C663        C664   1.413       .  A
C664        F665   1.355       .  S
C669        H676   1.084       .  S
C669        C670   1.393       .  A
C669        C674   1.396       .  A
C670        C671   1.408       .  A
C671        C672   1.409       .  A
C671        F678   1.357       .  S
C672        H677   1.083       .  S
C672        C673   1.410       .  A
C673        C674   1.418       .  A
C674        F675   1.351       .  S
C679        H686   1.084       .  S
C679        C680   1.388       .  A
C679        C684   1.389       .  A
C680        C681   1.405       .  A
C681        C682   1.406       .  A
C681        F688   1.357       .  S
C682        H687   1.083       .  S
C682        C683   1.410       .  A
C683        C684   1.421       .  A
C684        F685   1.350       .  S
C689        H696   1.082       .  S
C689        C690   1.409       .  A
C689        C694   1.401       .  A
C690        C691   1.407       .  A
C691        C692   1.405       .  A
C691        F698   1.357       .  S
C692        H697   1.082       .  S
C692        C693   1.408       .  A
C693        C694   1.409       .  A
C694        F695   1.357       .  S
C699        H706   1.079       .  S
C699        C700   1.413       .  A
C699        C704   1.400       .  A
C700        C701   1.409       .  A
C701        C702   1.407       .  A
C701        F708   1.356       .  S
C702        H707   1.083       .  S
C702        C703   1.406       .  A
C703        C704   1.400       .  A
C704        F705   1.358       .  S
C709        H716   1.083       .  S
C709        C710   1.408       .  A
C709        C714   1.408       .  A
C710        C711   1.414       .  A
C711        C712   1.404       .  A
C711        F718   1.355       .  S
C712        H717   1.083       .  S
C712        C713   1.402       .  A
C713        C714   1.413       .  A
C714        F715   1.356       .  S
C719        H726   1.083       .  S
C719        C720   1.402       .  A
C719        C724   1.405       .  A
C720        C721   1.411       .  A
C721        C722   1.403       .  A
C721        F728   1.356       .  S
C722        H727   1.083       .  S
C722        C723   1.405       .  A
C723        C724   1.414       .  A
C724        F725   1.356       .  S
C729        H736   1.083       .  S
C729        C730   1.405       .  A
C729        C734   1.406       .  A
C730        C731   1.393       .  A
C731        C732   1.390       .  A
C731        F738   1.358       .  S
C732        H737   1.076       .  S
C732        C733   1.411       .  A
C733        C734   1.409       .  A
C734        F735   1.357       .  S
C739        H746   1.081       .  S
C739        C740   1.408       .  A
C739        C744   1.401       .  A
C740        C741   1.409       .  A
C741        C742   1.406       .  A
C741        F748   1.357       .  S
C742        H747   1.083       .  S
C742        C743   1.410       .  A
C743        C744   1.403       .  A
C744        F745   1.357       .  S
C749        H756   1.084       .  S
C749        C750   1.392       .  A
C749        C754   1.398       .  A
C750        C751   1.404       .  A
C751        C752   1.406       .  A
C751        F758   1.357       .  S
C752        H757   1.082       .  S
C752        C753   1.413       .  A
C753        C754   1.424       .  A
C754        F755   1.351       .  S
C759        H766   1.083       .  S
C759        C760   1.408       .  A
C759        C764   1.410       .  A
C760        C761   1.395       .  A
C761        C762   1.394       .  A
C761        F768   1.358       .  S
C762        H767   1.074       .  S
C762        C763   1.411       .  A
C763        C764   1.410       .  A
C764        F765   1.357       .  S
C769        H776   1.082       .  S
C769        C770   1.411       .  A
C769        C774   1.407       .  A
C770        C771   1.403       .  A
C771        C772   1.403       .  A
C771        F778   1.357       .  S
C772        H777   1.081       .  S
C772        C773   1.409       .  A
C773        C774   1.409       .  A
C774        F775   1.357       .  S
C779        H786   1.083       .  S
C779        C780   1.406       .  A
C779        C784   1.409       .  A
C780        C781   1.396       .  A
C781        C782   1.396       .  A
C781        F788   1.358       .  S
C782        H787   1.077       .  S
C782        C783   1.413       .  A
C783        C784   1.412       .  A
C784        F785   1.357       .  S
C789        H796   1.082       .  S
C789        C790   1.409       .  A
C789        C794   1.405       .  A
C790        C791   1.404       .  A
C791        C792   1.404       .  A
C791        F798   1.357       .  S
C792        H797   1.081       .  S
C792        C793   1.410       .  A
C793        C794   1.409       .  A
C794        F795   1.357       .  S
C799        H806   1.083       .  S
C799        C800   1.404       .  A
C799        C804   1.394       .  A
C800        C801   1.408       .  A
C801        C802   1.389       .  A
C801        F808   1.355       .  S
C802        H807   1.081       .  S
C802        C803   1.395       .  A
C803        C804   1.403       .  A
C804        F805   1.358       .  S
C809        H816   1.083       .  S
C809        C810   1.400       .  A
C809        C814   1.387       .  A
C810        C811   1.406       .  A
C811        C812   1.388       .  A
C811        F818   1.358       .  S
C812        H817   1.081       .  S
C812        C813   1.397       .  A
C813        C814   1.403       .  A
C814        F815   1.357       .  S
C819        H826   1.084       .  S
C819        C820   1.400       .  A
C819        C824   1.388       .  A
C820        C821   1.407       .  A
C821        C822   1.389       .  A
C821        F828   1.357       .  S
C822        H827   1.081       .  S
C822        C823   1.396       .  A
C823        C824   1.402       .  A
C824        F825   1.358       .  S
C829        H836   1.083       .  S
C829        C830   1.404       .  A
C829        C834   1.384       .  A
C830        C831   1.401       .  A
C831        C832   1.393       .  A
C831        F838   1.357       .  S
C832        H837   1.083       .  S
C832        C833   1.405       .  A
C833        C834   1.395       .  A
C834        F835   1.355       .  S
C839        H846   1.081       .  S
C839        C840   1.400       .  A
C839        C844   1.387       .  A
C840        C841   1.399       .  A
C841        C842   1.387       .  A
C841        F848   1.354       .  S
C842        H847   1.083       .  S
C842        C843   1.401       .  A
C843        C844   1.399       .  A
C844        F845   1.358       .  S
C849        H856   1.082       .  S
C849        C850   1.395       .  A
C849        C854   1.390       .  A
C850        C851   1.403       .  A
C851        C852   1.398       .  A
C851        F858   1.358       .  S
C852        H857   1.082       .  S
C852        C853   1.405       .  A
C853        C854   1.409       .  A
C854        F855   1.357       .  S
C859        H866   1.083       .  S
C859        C860   1.403       .  A
C859        C864   1.388       .  A
C860        C861   1.405       .  A
C861        C862   1.393       .  A
C861        F868   1.357       .  S
C862        H867   1.084       .  S
C862        C863   1.403       .  A
C863        C864   1.398       .  A
C864        F865   1.354       .  S
C869        H876   1.083       .  S
C869        C870   1.405       .  A
C869        C874   1.393       .  A
C870        C871   1.401       .  A
C871        C872   1.384       .  A
C871        F878   1.352       .  S
C872        H877   1.083       .  S
C872        C873   1.399       .  A
C873        C874   1.401       .  A
C874        F875   1.358       .  S
