geometry optimzed in LAMMPS
_audit_creation_date              2020-11-30 
_audit_creation_method            'lammps2cif' 
_symmetry_space_group_name_H-M    'P1' 
_symmetry_Int_Tables_number       1 
_symmetry_cell_setting            triclinic 
loop_ 
_symmetry_equiv_pos_as_xyz 
  x,y,z 
_cell_length_a                    111.365328 
_cell_length_b                    111.67910779933219 
_cell_length_c                    112.27856911517817 
_cell_angle_alpha                 89.87193139686087 
_cell_angle_beta                  89.99376174808921 
_cell_angle_gamma                 89.9073063193452 
loop_ 
_atom_site_label 
_atom_site_type_symbol 
_atom_site_fract_x 
_atom_site_fract_y 
_atom_site_fract_z 
_atom_site_charge 
C1          C  0.25644907  0.27383838  0.26093324     0.86900
C2          C  0.26325986  0.26383705  0.25449717    -0.53300
C3          C  0.25624945  0.25684438  0.24741358     0.09800
C4          C  0.24287637  0.26030003  0.24763701     0.20800
C5          C  0.24975861  0.28074665  0.25117472    -0.54100
C6          C  0.24256452  0.27368289  0.24427501     0.09900
C7          C  0.24655310  0.26737470  0.26785330    -0.53600
C8          C  0.23947755  0.26022126  0.26095459     0.10500
H9          H  0.27288610  0.26249287  0.25536695     0.15000
H10         H  0.23705374  0.25454830  0.24203267     0.00700
H11         H  0.25028944  0.29040330  0.25012719     0.15300
H12         H  0.24534022  0.26821158  0.27741493     0.15100
C13         C  0.75653556  0.26293351  0.23956253     0.86900
C14         C  0.74579131  0.25796501  0.23265281    -0.53300
C15         C  0.73808790  0.25131776  0.23944378     0.09800
C16         C  0.74169314  0.25049467  0.25266331     0.20800
C17         C  0.75101433  0.27001502  0.24982108    -0.54100
C18         C  0.74318193  0.26360938  0.25667664     0.09900
C19         C  0.76227802  0.25189130  0.24545052    -0.53600
C20         C  0.75454720  0.24545710  0.25234793     0.10500
H21         H  0.74465404  0.25919440  0.22311732     0.15000
H22         H  0.73541138  0.24516614  0.25821512     0.00700
H23         H  0.75298400  0.27941115  0.25136410     0.15300
H24         H  0.77163032  0.24937197  0.24452706     0.15100
C25         C  0.23372166  0.74790952  0.23139989     0.86900
C26         C  0.22737210  0.75587588  0.24044487    -0.53300
C27         C  0.23496100  0.76234659  0.24741921     0.09800
C28         C  0.24839338  0.76012644  0.24478973     0.20800
C29         C  0.24177232  0.75647888  0.22430886    -0.54100
C30         C  0.24953712  0.76283070  0.23133116     0.09900
C31         C  0.24243700  0.74019460  0.23866002    -0.53600
C32         C  0.25016565  0.74648464  0.24568812     0.10500
H33         H  0.21765605  0.75653419  0.24109037     0.15000
H34         H  0.25459599  0.76538379  0.25047581     0.00700
H35         H  0.24148966  0.75735125  0.21467841     0.15300
H36         H  0.24241334  0.73048500  0.23821213     0.15100
C37         C  0.23106446  0.23388441  0.73992171     0.86900
C38         C  0.22427260  0.24183827  0.74869163    -0.53300
C39         C  0.23156167  0.24880438  0.75559216     0.09800
C40         C  0.24509385  0.24701236  0.75310623     0.20800
C41         C  0.23901044  0.24253559  0.73276849    -0.54100
C42         C  0.24643084  0.24934260  0.73963844     0.09900
C43         C  0.23977701  0.22660441  0.74764822    -0.53600
C44         C  0.24711263  0.23341972  0.75458856     0.10500
H45         H  0.21453639  0.24212416  0.74914379     0.15000
H46         H  0.25100570  0.25261152  0.75877791     0.00700
H47         H  0.23897910  0.24307145  0.72310923     0.15300
H48         H  0.24007197  0.21687898  0.74766742     0.15100
C49         C  0.76624164  0.73713733  0.23520888     0.86900
C50         C  0.76020348  0.74710315  0.22787717    -0.53300
C51         C  0.75325002  0.75463676  0.23449323     0.09800
C52         C  0.75321257  0.75167517  0.24789200     0.20800
C53         C  0.77336094  0.74372217  0.24491959    -0.54100
C54         C  0.76656830  0.75152689  0.25141668     0.09900
C55         C  0.75588748  0.73095242  0.24178442    -0.53600
C56         C  0.74917867  0.73851400  0.24860268     0.10500
H57         H  0.76103367  0.74792144  0.21827221     0.15000
H58         H  0.74768052  0.75784756  0.25334348     0.00700
H59         H  0.78299724  0.74277377  0.24609304     0.15300
H60         H  0.75423516  0.72137806  0.24136021     0.15100
C61         C  0.74533844  0.25945350  0.74047145     0.86900
C62         C  0.75119615  0.25009470  0.73243520    -0.53300
C63         C  0.75930701  0.24276967  0.73805992     0.09800
C64         C  0.76062202  0.24548408  0.75149043     0.20800
C65         C  0.73978838  0.25224310  0.75072638    -0.54100
C66         C  0.74770581  0.24488543  0.75642668     0.09900
C67         C  0.75583363  0.26612946  0.74608663    -0.53600
C68         C  0.76379313  0.25893800  0.75199677     0.10500
H69         H  0.74924494  0.24967537  0.72298665     0.15000
H70         H  0.76710057  0.23957786  0.75620880     0.00700
H71         H  0.73038307  0.25255822  0.75317984     0.15300
H72         H  0.75668398  0.27581519  0.74570644     0.15100
C73         C  0.27090927  0.73635667  0.73643839     0.86900
C74         C  0.27845306  0.74441872  0.74449032    -0.53300
C75         C  0.27176929  0.75141084  0.75197729     0.09800
C76         C  0.25809308  0.74963245  0.75073425     0.20800
C77         C  0.26292365  0.72913515  0.74495015    -0.54100
C78         C  0.25619526  0.73605890  0.75243911     0.09900
C79         C  0.26234362  0.74497287  0.73003172    -0.53600
C80         C  0.25568610  0.75198288  0.73746224     0.10500
H81         H  0.28819840  0.74458955  0.74423036     0.15000
H82         H  0.25270291  0.75536355  0.75679516     0.00700
H83         H  0.26259150  0.71941516  0.74501159     0.15300
H84         H  0.26173954  0.74568734  0.72040112     0.15100
C85         C  0.73889457  0.73241651  0.74404314     0.86900
C86         C  0.73151279  0.74001416  0.75275633    -0.53300
C87         C  0.73837694  0.74758484  0.75953446     0.09800
C88         C  0.75202636  0.74670047  0.75700994     0.20800
C89         C  0.74616220  0.74150247  0.73686382    -0.54100
C90         C  0.75312603  0.74894306  0.74350079     0.09900
C91         C  0.74800395  0.72588896  0.75186768    -0.53600
C92         C  0.75482619  0.73326919  0.75874924     0.10500
H93         H  0.72179817  0.73955103  0.75343286     0.15000
H94         H  0.75764321  0.75269244  0.76255320     0.00700
H95         H  0.74582591  0.74194679  0.72719785     0.15300
H96         H  0.74875491  0.71618902  0.75216625     0.15100
N97         N  0.40703613  0.23669752  0.23637711    -0.26900
N98         N  0.39891350  0.23782959  0.24488850    -0.34700
C99         C  0.38905525  0.23159059  0.24193331     0.01500
C100        C  0.39091071  0.22641853  0.23091729     0.07500
C101        C  0.40239041  0.22988396  0.22758675    -0.05600
H102        H  0.38086651  0.23140261  0.24711824     0.08200
H103        H  0.40699299  0.22765196  0.21939999     0.09400
Cu104      Cu  0.40062619  0.24955297  0.25905270     0.44200
Cu105      Cu  0.42396898  0.24465497  0.23778919     0.42000
Cu106      Cu  0.42554837  0.26979998  0.25898487     0.43900
N107        N  0.40129585  0.26485171  0.26942750    -0.34300
N108        N  0.40989369  0.27297391  0.26873528    -0.28500
C109        C  0.40690134  0.28236886  0.27570581    -0.04600
C110        C  0.39601427  0.27982663  0.28115161     0.07600
C111        C  0.39278941  0.26866900  0.27699243     0.01400
H112        H  0.41235314  0.29027829  0.27693791     0.09000
H113        H  0.38464264  0.26381511  0.27904302     0.08100
N114        N  0.44049090  0.26175085  0.25102706    -0.35700
N115        N  0.43995917  0.25263267  0.24351622    -0.27900
C116        C  0.45122655  0.24889167  0.24113037    -0.03100
C117        C  0.45923165  0.25595721  0.24743285     0.05500
C118        C  0.45209403  0.26402104  0.25356016     0.03600
H119        H  0.45339418  0.24132192  0.23552966     0.08700
H120        H  0.45509850  0.27076108  0.25978740     0.07500
N121        N  0.59417017  0.25766196  0.27861069    -0.26900
N122        N  0.60184687  0.24862643  0.27881090    -0.34700
C123        C  0.61194368  0.25198485  0.28440970     0.01500
C124        C  0.61070097  0.26376837  0.28793118     0.07500
C125        C  0.59929769  0.26711214  0.28411834    -0.05600
H126        H  0.61989266  0.24645510  0.28516258     0.08200
H127        H  0.59522872  0.27587751  0.28489918     0.09400
Cu128      Cu  0.59962328  0.23307636  0.26921926     0.44200
Cu129      Cu  0.57755206  0.25633939  0.26982387     0.42000
Cu130      Cu  0.57660193  0.23264247  0.24708165     0.43900
N131        N  0.60038091  0.22234616  0.25434631    -0.34300
N132        N  0.59247349  0.22280082  0.24558597    -0.28500
C133        C  0.59699875  0.21687483  0.23612916    -0.04600
C134        C  0.60824200  0.21247324  0.23920237     0.07600
C135        C  0.61002090  0.21607124  0.25082637     0.01400
H136        H  0.59272359  0.21635842  0.22749356     0.09000
H137        H  0.61816853  0.21517131  0.25599706     0.08100
N138        N  0.56172039  0.24275816  0.25229124    -0.35700
N139        N  0.56200824  0.25133465  0.26042359    -0.27900
C140        C  0.55077344  0.25562688  0.26191339    -0.03100
C141        C  0.54305383  0.24943674  0.25442756     0.05500
C142        C  0.55033002  0.24136684  0.24848205     0.03600
H143        H  0.54836519  0.26255773  0.26819368     0.08700
H144        H  0.54751710  0.23480600  0.24198292     0.07500
N145        N  0.23354248  0.40839252  0.23201040    -0.26900
N146        N  0.23458922  0.40022690  0.24047807    -0.34700
C147        C  0.22790275  0.39065768  0.23771982     0.01500
C148        C  0.22236780  0.39273620  0.22690523     0.07500
C149        C  0.22615885  0.40408679  0.22347319    -0.05600
H150        H  0.22759491  0.38252545  0.24296199     0.08200
H151        H  0.22384614  0.40877613  0.21534792     0.09400
Cu152      Cu  0.24650259  0.40132250  0.25447465     0.44200
Cu153      Cu  0.24270575  0.42471236  0.23323085     0.42000
Cu154      Cu  0.26752513  0.42492718  0.25581812     0.43900
N155        N  0.26171151  0.40043337  0.26489741    -0.34300
N156        N  0.27016646  0.40871299  0.26496314    -0.28500
C157        C  0.27947001  0.40466793  0.27162139    -0.04600
C158        C  0.27651858  0.39337080  0.27597940     0.07600
C159        C  0.26520881  0.39107094  0.27154924     0.01400
H160        H  0.28767514  0.40957601  0.27323201     0.09000
H161        H  0.26003343  0.38296321  0.27273854     0.08100
N162        N  0.26075056  0.44006555  0.24688957    -0.35700
N163        N  0.25204692  0.43999337  0.23882108    -0.27900
C164        C  0.24958465  0.45138502  0.23560486    -0.03100
C165        C  0.25697908  0.45900522  0.24196192     0.05500
C166        C  0.26394694  0.45150436  0.24899248     0.03600
H167        H  0.24260527  0.45395769  0.22939942     0.08700
H168        H  0.27064183  0.45416928  0.25543771     0.07500
N169        N  0.26611750  0.59389199  0.26410171    -0.26900
N170        N  0.25710295  0.60160353  0.26383266    -0.34700
C171        C  0.25993027  0.61127360  0.27030047     0.01500
C172        C  0.27137933  0.60981072  0.27478432     0.07500
C173        C  0.27511973  0.59868415  0.27064058    -0.05600
H174        H  0.25431026  0.61914608  0.27107601     0.08200
H175        H  0.28372717  0.59445520  0.27218733     0.09400
Cu176      Cu  0.24228897  0.60012092  0.25286454     0.44200
Cu177      Cu  0.26488699  0.57740996  0.25518873     0.42000
Cu178      Cu  0.24190655  0.57725876  0.23114858     0.43900
N179        N  0.23127861  0.60079038  0.23806372    -0.34300
N180        N  0.23173678  0.59284338  0.22938166    -0.28500
C181        C  0.22467582  0.59663857  0.22035012    -0.04600
C182        C  0.21942135  0.60738673  0.22368729     0.07600
C183        C  0.22380917  0.60970982  0.23495795     0.01400
H184        H  0.22342890  0.59192681  0.21203468     0.09000
H185        H  0.22214192  0.61759589  0.24029324     0.08100
N186        N  0.25082571  0.56209483  0.23751155    -0.35700
N187        N  0.25894759  0.56203643  0.24614501    -0.27900
C188        C  0.26190431  0.55056980  0.24860623    -0.03100
C189        C  0.25534545  0.54308856  0.24122791     0.05500
C190        C  0.24845899  0.55072594  0.23430423     0.03600
H191        H  0.26811982  0.54785390  0.25551083     0.08700
H192        H  0.24188747  0.54821315  0.22767488     0.07500
N193        N  0.23450646  0.23771291  0.41087880    -0.26900
N194        N  0.23368438  0.24660492  0.40313470    -0.34700
C195        C  0.22699741  0.24315073  0.39381411     0.01500
C196        C  0.22354327  0.23142186  0.39556401     0.07500
C197        C  0.22849222  0.22817019  0.40647665    -0.05600
H198        H  0.22511098  0.24867408  0.38610494     0.08200
H199        H  0.22757327  0.21964079  0.41096628     0.09400
Cu200      Cu  0.24313189  0.26243074  0.40461923     0.44200
Cu201      Cu  0.24349546  0.24012451  0.42716600     0.42000
Cu202      Cu  0.26472414  0.26569906  0.42801492     0.43900
N203        N  0.25729209  0.27430754  0.40375237    -0.34300
N204        N  0.26594121  0.27499815  0.41178073    -0.28500
C205        C  0.27485960  0.28188579  0.40730463    -0.04600
C206        C  0.27149879  0.28574128  0.39599798     0.07600
C207        C  0.26030395  0.28078316  0.39413768     0.01400
H208        H  0.28327095  0.28366621  0.41177687     0.09000
H209        H  0.25507581  0.28111613  0.38602361     0.08100
N210        N  0.25936715  0.25576683  0.44302880    -0.35700
N211        N  0.25175135  0.24665576  0.44271683    -0.27900
C212        C  0.24980711  0.24280324  0.45395554    -0.03100
C213        C  0.25647820  0.24974743  0.46174034     0.05500
C214        C  0.26243705  0.25786365  0.45447060     0.03600
H215        H  0.24380046  0.23557375  0.45631824     0.08700
H216        H  0.26840116  0.26494316  0.45730169     0.07500
N217        N  0.26550931  0.26338968  0.59684669    -0.26900
N218        N  0.25632218  0.26274186  0.60427952    -0.34700
C219        C  0.25864764  0.26936336  0.61398223     0.01500
C220        C  0.26992650  0.27432126  0.61277252     0.07500
C221        C  0.27407216  0.27033796  0.60179655    -0.05600
H222        H  0.25286629  0.26988403  0.62171087     0.08200
H223        H  0.28272199  0.27217573  0.59781311     0.09400
Cu224      Cu  0.24227229  0.25082944  0.60232673     0.44200
Cu225      Cu  0.26541231  0.25450282  0.58040907     0.42000
Cu226      Cu  0.24435550  0.22937398  0.57878308     0.43900
N227        N  0.23342721  0.23456375  0.60264718    -0.34300
N228        N  0.23494768  0.22607874  0.59459228    -0.28500
C229        C  0.22933790  0.21604722  0.59839555    -0.04600
C230        C  0.22392466  0.21851322  0.60925818     0.07600
C231        C  0.22667493  0.23031742  0.61160622     0.01400
H232        H  0.22910146  0.20767444  0.59357642     0.09000
H233        H  0.22434749  0.23532947  0.61951689     0.08100
N234        N  0.25277036  0.23702821  0.56391114    -0.35700
N235        N  0.26046425  0.24604348  0.56447293    -0.27900
C236        C  0.26341479  0.24938331  0.55328474    -0.03100
C237        C  0.25726443  0.24220472  0.54528407     0.05500
C238        C  0.25063137  0.23446386  0.55237322     0.03600
H239        H  0.26926084  0.25680408  0.55112216     0.08700
H240        H  0.24437926  0.22770946  0.54937520     0.07500
N241        N  0.40667091  0.74451810  0.26579218    -0.26900
N242        N  0.39951763  0.75397056  0.26575577    -0.34700
C243        C  0.38886908  0.75103502  0.27050272     0.01500
C244        C  0.38910334  0.73908595  0.27372240     0.07500
C245        C  0.40058780  0.73519212  0.27062780    -0.05600
H246        H  0.38127200  0.75706173  0.27093588     0.08200
H247        H  0.40410342  0.72619767  0.27150069     0.09400
Cu248      Cu  0.40310255  0.76975872  0.25687182     0.44200
Cu249      Cu  0.42403808  0.74563455  0.25833352     0.42000
Cu250      Cu  0.42595401  0.76942520  0.23519465     0.43900
N251        N  0.40275709  0.78078736  0.24212253    -0.34300
N252        N  0.41045077  0.77982901  0.23322397    -0.28500
C253        C  0.40616810  0.78611397  0.22382574    -0.04600
C254        C  0.39535216  0.79135228  0.22717075     0.07600
C255        C  0.39357689  0.78783419  0.23882205     0.01400
H256        H  0.41043046  0.78659927  0.21518036     0.09000
H257        H  0.38567181  0.78945822  0.24418971     0.08100
N258        N  0.44071787  0.76016236  0.24220326    -0.35700
N259        N  0.44018498  0.75170639  0.25050094    -0.27900
C260        C  0.45151870  0.74860031  0.25355260    -0.03100
C261        C  0.45952345  0.75544915  0.24692694     0.05500
C262        C  0.45231869  0.76261880  0.23984142     0.03600
H263        H  0.45376047  0.74212933  0.26038547     0.08700
H264        H  0.45530127  0.76945180  0.23367332     0.07500
N265        N  0.59516953  0.73681114  0.25975687    -0.26900
N266        N  0.60279874  0.73726245  0.25076019    -0.34700
C267        C  0.61285181  0.73128032  0.25363448     0.01500
C268        C  0.61167252  0.72685987  0.26508590     0.07500
C269        C  0.60031684  0.73054644  0.26874400    -0.05600
H270        H  0.62073930  0.73082315  0.24802888     0.08200
H271        H  0.59623232  0.72901202  0.27735394     0.09400
Cu272      Cu  0.60045895  0.74812630  0.23603361     0.44200
Cu273      Cu  0.57848497  0.74552817  0.25859596     0.42000
Cu274      Cu  0.57819236  0.77098111  0.23714446     0.43900
N275        N  0.60134454  0.76359946  0.22599245    -0.34300
N276        N  0.59396978  0.77279469  0.22721399    -0.28500
C277        C  0.59854787  0.78224956  0.22117965    -0.04600
C278        C  0.60919364  0.77860756  0.21582313     0.07600
C279        C  0.61057247  0.76676366  0.21902493     0.01400
H280        H  0.59453181  0.79106996  0.22083122     0.09000
H281        H  0.61820158  0.76107068  0.21711104     0.08100
N282        N  0.56291825  0.76375454  0.24531493    -0.35700
N283        N  0.56295982  0.75462028  0.25288213    -0.27900
C284        C  0.55149048  0.75168918  0.25544502    -0.03100
C285        C  0.54386989  0.75926308  0.24920366     0.05500
C286        C  0.55145237  0.76680011  0.24290584     0.03600
H287        H  0.54887818  0.74432430  0.26115422     0.08700
H288        H  0.54884258  0.77376082  0.23670698     0.07500
N289        N  0.41170167  0.25685475  0.72997757    -0.26900
N290        N  0.40351762  0.24830802  0.72987336    -0.34700
C291        C  0.39377428  0.25211438  0.72394122     0.01500
C292        C  0.39570691  0.26373069  0.72022823     0.07500
C293        C  0.40718741  0.26654249  0.72423031    -0.05600
H294        H  0.38559860  0.24699110  0.72293689     0.08200
H295        H  0.41187322  0.27493825  0.72304427     0.09400
Cu296      Cu  0.40488191  0.23275506  0.73973561     0.44200
Cu297      Cu  0.42837633  0.25381361  0.73822245     0.42000
Cu298      Cu  0.42847897  0.22947939  0.76104674     0.43900
N299        N  0.40368987  0.22152947  0.75430239    -0.34300
N300        N  0.41172906  0.22101489  0.76294993    -0.28500
C301        C  0.40702526  0.21460898  0.77207864    -0.04600
C302        C  0.39559382  0.21083711  0.76879157     0.07600
C303        C  0.39388751  0.21534441  0.75748085     0.01400
H304        H  0.41150667  0.21292617  0.78046593     0.09000
H305        H  0.38576165  0.21482843  0.75222366     0.08100
N306        N  0.44396051  0.23807268  0.75450369    -0.35700
N307        N  0.44386303  0.24664020  0.74629826    -0.27900
C308        C  0.45529351  0.24960571  0.74366694    -0.03100
C309        C  0.46300007  0.24268453  0.75050666     0.05500
C310        C  0.45548533  0.23547474  0.75728502     0.03600
H311        H  0.45783032  0.25625373  0.73711384     0.08700
H312        H  0.45819068  0.22866149  0.76360570     0.07500
N313        N  0.60103234  0.23752772  0.76359156    -0.26900
N314        N  0.60906473  0.24603972  0.76176232    -0.34700
C315        C  0.61966937  0.24261859  0.76631359     0.01500
C316        C  0.61843026  0.23133976  0.77125947     0.07500
C317        C  0.60645659  0.22835026  0.76938283    -0.05600
H318        H  0.62781884  0.24783068  0.76563546     0.08200
H319        H  0.60208530  0.22006921  0.77186530     0.09400
Cu320      Cu  0.60608481  0.26133538  0.75175841     0.44200
Cu321      Cu  0.58330014  0.23929024  0.75737299     0.42000
Cu322      Cu  0.57987792  0.26234801  0.73376128     0.43900
N323        N  0.60387337  0.27359738  0.73810973    -0.34300
N324        N  0.59470744  0.27334524  0.73064335    -0.28500
C325        C  0.59693718  0.28099546  0.72158311    -0.04600
C326        C  0.60790695  0.28645643  0.72369120     0.07600
C327        C  0.61200386  0.28157331  0.73423484     0.01400
H328        H  0.59114579  0.28231071  0.71395515     0.09000
H329        H  0.62068190  0.28303307  0.73831175     0.08100
N330        N  0.56573006  0.25252327  0.74115169    -0.35700
N331        N  0.56680214  0.24446223  0.74977266    -0.27900
C332        C  0.55570853  0.24077259  0.75298041    -0.03100
C333        C  0.54727955  0.24676688  0.74607715     0.05500
C334        C  0.55400131  0.25409700  0.73867314     0.03600
H335        H  0.55389443  0.23437636  0.76000070     0.08700
H336        H  0.55061233  0.26042264  0.73217967     0.07500
N337        N  0.26872697  0.73757303  0.40157728    -0.26900
N338        N  0.26857695  0.74716812  0.39467074    -0.34700
C339        C  0.27470565  0.74492759  0.38464408     0.01500
C340        C  0.27887892  0.73331225  0.38507237     0.07500
C341        C  0.27494822  0.72883866  0.39596470    -0.05600
H342        H  0.27539072  0.75108041  0.37721698     0.08200
H343        H  0.27618781  0.71985236  0.39937073     0.09400
Cu344      Cu  0.25794308  0.76198626  0.39759138     0.44200
Cu345      Cu  0.25966744  0.73746290  0.41792570     0.42000
Cu346      Cu  0.23560554  0.76052309  0.41993328     0.43900
N347        N  0.24288019  0.77272007  0.39734504    -0.34300
N348        N  0.23390027  0.77158389  0.40494815    -0.28500
C349        C  0.22459998  0.77834259  0.40106750    -0.04600
C350        C  0.22810056  0.78406683  0.39063004     0.07600
C351        C  0.23972467  0.78031540  0.38861838     0.01400
H352        H  0.21594477  0.77892646  0.40540384     0.09000
H353        H  0.24523055  0.78235121  0.38093611     0.08100
N354        N  0.24180787  0.75011767  0.43423570    -0.35700
N355        N  0.25040984  0.74192352  0.43356546    -0.27900
C356        C  0.25265916  0.73768283  0.44460602    -0.03100
C357        C  0.24516773  0.74345152  0.45260602     0.05500
C358        C  0.23841056  0.75124849  0.44569849     0.03600
H359        H  0.25948672  0.73110476  0.44670030     0.08700
H360        H  0.23173854  0.75755974  0.44880603     0.07500
N361        N  0.27151379  0.72315495  0.58430098    -0.26900
N362        N  0.27230465  0.73170616  0.59237335    -0.34700
C363        C  0.28030654  0.72848003  0.60072519     0.01500
C364        C  0.28466249  0.71725393  0.59792259     0.07500
C365        C  0.27884400  0.71405456  0.58749151    -0.05600
H366        H  0.28235459  0.73367519  0.60858853     0.08200
H367        H  0.27993116  0.70581498  0.58255627     0.09400
Cu368      Cu  0.26104254  0.74641868  0.59279684     0.44200
Cu369      Cu  0.26077199  0.72526972  0.56923571     0.42000
Cu370      Cu  0.23806953  0.74955793  0.57076170     0.43900
N371        N  0.24617219  0.75727789  0.59503253    -0.34300
N372        N  0.23711727  0.75793695  0.58744745    -0.28500
C373        C  0.22829596  0.76461618  0.59241337    -0.04600
C374        C  0.23217245  0.76842111  0.60354430     0.07600
C375        C  0.24352519  0.76359739  0.60483446     0.01400
H376        H  0.21977174  0.76660962  0.58823048     0.09000
H377        H  0.24928418  0.76422188  0.61256831     0.08100
N378        N  0.24346980  0.74092078  0.55503844    -0.35700
N379        N  0.25155405  0.73220980  0.55457077    -0.27900
C380        C  0.25356778  0.72934854  0.54309055    -0.03100
C381        C  0.24643874  0.73655503  0.53594595     0.05500
C382        C  0.24014167  0.74375057  0.54382532     0.03600
H383        H  0.26002651  0.72273398  0.54016697     0.08700
H384        H  0.23387636  0.75080712  0.54154989     0.07500
N385        N  0.26654306  0.40347586  0.73021504    -0.26900
N386        N  0.25728753  0.39623838  0.73170723    -0.34700
C387        C  0.25977596  0.38553004  0.72697809     0.01500
C388        C  0.27122162  0.38582631  0.72228694     0.07500
C389        C  0.27531678  0.39737780  0.72447759    -0.05600
H390        H  0.25391418  0.37784496  0.72764100     0.08200
H391        H  0.28409199  0.40094650  0.72237627     0.09400
Cu392      Cu  0.24267580  0.39971434  0.74236585     0.44200
Cu393      Cu  0.26612942  0.42095324  0.73701828     0.42000
Cu394      Cu  0.24398220  0.42384020  0.76191266     0.43900
N395        N  0.23269018  0.40017348  0.75776941    -0.34300
N396        N  0.23389993  0.40863516  0.76586262    -0.28500
C397        C  0.22778290  0.40537089  0.77574518    -0.04600
C398        C  0.22238702  0.39440217  0.77352601     0.07600
C399        C  0.22565411  0.39144818  0.76206156     0.01400
H400        H  0.22728178  0.41055899  0.78385538     0.09000
H401        H  0.22360213  0.38322945  0.75740328     0.08100
N402        N  0.25286824  0.43804124  0.75362394    -0.35700
N403        N  0.26075859  0.43718749  0.74481505    -0.27900
C404        C  0.26392075  0.44834719  0.74137313    -0.03100
C405        C  0.25769059  0.45654463  0.74830210     0.05500
C406        C  0.25081549  0.44967396  0.75592533     0.03600
H407        H  0.27003632  0.45033065  0.73414952     0.08700
H408        H  0.24451635  0.45290662  0.76251850     0.07500
N409        N  0.27539920  0.59036775  0.73141537    -0.26900
N410        N  0.27548817  0.59840369  0.74002039    -0.34700
C411        C  0.28162888  0.60806351  0.73643554     0.01500
C412        C  0.28556839  0.60617221  0.72492569     0.07500
C413        C  0.28146255  0.59482272  0.72196702    -0.05600
H414        H  0.28243339  0.61620443  0.74157323     0.08200
H415        H  0.28252939  0.59029719  0.71352285     0.09400
Cu416      Cu  0.26483733  0.59742346  0.75499118     0.44200
Cu417      Cu  0.26626055  0.57424905  0.73367412     0.42000
Cu418      Cu  0.24215729  0.57523867  0.75667244     0.43900
N419        N  0.24921095  0.59982968  0.76452127    -0.34300
N420        N  0.24011399  0.59225050  0.76443098    -0.28500
C421        C  0.23061057  0.59755365  0.76981496    -0.04600
C422        C  0.23410136  0.60892206  0.77351740     0.07600
C423        C  0.24592605  0.60995030  0.77004007     0.01400
H424        H  0.22187767  0.59347897  0.77094505     0.09000
H425        H  0.25159153  0.61776020  0.77093373     0.08100
N426        N  0.24908813  0.55949936  0.74895678    -0.35700
N427        N  0.25760597  0.55925910  0.74070449    -0.27900
C428        C  0.26046722  0.54778962  0.73832611    -0.03100
C429        C  0.25351013  0.54039916  0.74538531     0.05500
C430        C  0.24637610  0.54812143  0.75200362     0.03600
H431        H  0.26739201  0.54504041  0.73214530     0.08700
H432        H  0.23990866  0.54567154  0.75876854     0.07500
C433        C  0.32031812  0.68201616  0.66228356     0.86900
C434        C  0.31688972  0.66947351  0.66680885    -0.53300
C435        C  0.31793582  0.66818671  0.67889284     0.09800
C436        C  0.32258478  0.67953985  0.68524288     0.20800
C437        C  0.31256135  0.69065057  0.66958721    -0.54100
C438        C  0.31372950  0.68944225  0.68161055     0.09900
C439        C  0.33318176  0.68407091  0.66678418    -0.53600
C440        C  0.33441787  0.68295083  0.67886347     0.10500
H441        H  0.31358578  0.66242494  0.66106648     0.15000
H442        H  0.32340085  0.67846971  0.69502550     0.00700
H443        H  0.30669484  0.69720547  0.66543318     0.15300
H444        H  0.34047389  0.68687918  0.66099913     0.15100
N445        N  0.23452807  0.26340435  0.90403892    -0.26900
N446        N  0.23427477  0.25455813  0.89625603    -0.34700
C447        C  0.22781618  0.25791949  0.88669613     0.01500
C448        C  0.22390892  0.26953846  0.88840066     0.07500
C449        C  0.22834418  0.27278456  0.89950290    -0.05600
H450        H  0.22662602  0.25253526  0.87878487     0.08200
H451        H  0.22726042  0.28133471  0.90388015     0.09400
Cu452      Cu  0.24470804  0.23932125  0.89805053     0.44200
Cu453      Cu  0.24373215  0.26154392  0.92022098     0.42000
Cu454      Cu  0.26678183  0.23738682  0.92143401     0.43900
N455        N  0.25962238  0.22831084  0.89719888    -0.34300
N456        N  0.26850952  0.22816841  0.90501479    -0.28500
C457        C  0.27772286  0.22176185  0.90027917    -0.04600
C458        C  0.27424740  0.21765136  0.88906109     0.07600
C459        C  0.26272942  0.22193594  0.88757694     0.01400
H460        H  0.28631850  0.22036781  0.90455376     0.09000
H461        H  0.25724397  0.22114112  0.87966399     0.08100
N462        N  0.26072309  0.24730695  0.93639894    -0.35700
N463        N  0.25255653  0.25594926  0.93578916    -0.27900
C464        C  0.25030572  0.26003487  0.94686070    -0.03100
C465        C  0.25729928  0.25373073  0.95494878     0.05500
C466        C  0.26380356  0.24574283  0.94796744     0.03600
H467        H  0.24379302  0.26693042  0.94889167     0.08700
H468        H  0.27013328  0.23909416  0.95111440     0.07500
N469        N  0.26514002  0.24127235  0.09199048    -0.26900
N470        N  0.25614600  0.24270375  0.09952002    -0.34700
C471        C  0.25896876  0.23784112  0.11006979     0.01500
C472        C  0.27035907  0.23306147  0.10937391     0.07500
C473        C  0.27409440  0.23537118  0.09773154    -0.05600
H474        H  0.25325738  0.23815818  0.11786190     0.08200
H475        H  0.28267003  0.23308577  0.09381622     0.09400
Cu476      Cu  0.24109322  0.25276167  0.09603130     0.44200
Cu477      Cu  0.26364599  0.24820779  0.07454957     0.42000
Cu478      Cu  0.23980288  0.27211645  0.07122305     0.43900
N479        N  0.22942006  0.26698460  0.09521741    -0.34300
N480        N  0.22942364  0.27509987  0.08664665    -0.28500
C481        C  0.22195556  0.28412477  0.08989352    -0.04600
C482        C  0.21694821  0.28125096  0.10090885     0.07600
C483        C  0.22192204  0.27034736  0.10391361     0.01400
H484        H  0.22024899  0.29208522  0.08465056     0.09000
H485        H  0.22064776  0.26545968  0.11214924     0.08100
N486        N  0.24962564  0.26433286  0.05710886    -0.35700
N487        N  0.25791562  0.25584356  0.05825617    -0.27900
C488        C  0.26160725  0.25251781  0.04728215    -0.03100
C489        C  0.25541393  0.25916055  0.03879787     0.05500
C490        C  0.24793572  0.26655408  0.04539340     0.03600
H491        H  0.26817573  0.24557900  0.04560094     0.08700
H492        H  0.24148724  0.27290977  0.04189997     0.07500
N493        N  0.25775676  0.91632740  0.22291681    -0.26900
N494        N  0.24871719  0.90868869  0.22311688    -0.34700
C495        C  0.25175106  0.89872177  0.21716836     0.01500
C496        C  0.26339411  0.89991972  0.21309212     0.07500
C497        C  0.26695457  0.91124024  0.21687355    -0.05600
H498        H  0.24628272  0.89073078  0.21686449     0.08200
H499        H  0.27575402  0.91519678  0.21584194     0.09400
Cu500      Cu  0.23448873  0.91019567  0.23470701     0.44200
Cu501      Cu  0.25668820  0.93259240  0.23236076     0.42000
Cu502      Cu  0.23617151  0.93190780  0.25819926     0.43900
N503        N  0.22656204  0.90789621  0.25112244    -0.34300
N504        N  0.22773688  0.91530231  0.26021397    -0.28500
C505        C  0.22295326  0.91007744  0.26999698    -0.04600
C506        C  0.21856854  0.89891484  0.26674072     0.07600
C507        C  0.22101477  0.89790199  0.25475713     0.01400
H508        H  0.22279887  0.91403001  0.27878271     0.09000
H509        H  0.21936383  0.89020188  0.24915998     0.08100
N510        N  0.24443306  0.94747319  0.25178220    -0.35700
N511        N  0.25178656  0.94772702  0.24249899    -0.27900
C512        C  0.25487736  0.95920456  0.24033585    -0.03100
C513        C  0.24921347  0.96655182  0.24858486     0.05500
C514        C  0.24269042  0.95876826  0.25570083     0.03600
H515        H  0.26058416  0.96202316  0.23305994     0.08700
H516        H  0.23683031  0.96117208  0.26300392     0.07500
N517        N  0.22851011  0.10292482  0.26186114    -0.26900
N518        N  0.22724559  0.11006172  0.25254422    -0.34700
C519        C  0.22220752  0.12041394  0.25594898     0.01500
C520        C  0.22013293  0.11995486  0.26804144     0.07500
C521        C  0.22421389  0.10868773  0.27157500    -0.05600
H522        H  0.22073240  0.12799512  0.25010801     0.08200
H523        H  0.22436537  0.10511237  0.28053555     0.09400
Cu524      Cu  0.23472931  0.10685958  0.23611292     0.44200
Cu525      Cu  0.23673254  0.08604240  0.25992889     0.42000
Cu526      Cu  0.25679211  0.08437886  0.23342392     0.43900
N527        N  0.24863511  0.10813001  0.22416022    -0.34300
N528        N  0.25767006  0.10046957  0.22376901    -0.28500
C529        C  0.26668286  0.10547869  0.21740446    -0.04600
C530        C  0.26296874  0.11678877  0.21365927     0.07600
C531        C  0.25148242  0.11804669  0.21804852     0.01400
H532        H  0.27546352  0.10150859  0.21619046     0.09000
H533        H  0.24603811  0.12607985  0.21784327     0.08100
N534        N  0.25138096  0.06957987  0.24370177    -0.35700
N535        N  0.24425947  0.07011077  0.25316054    -0.27900
C536        C  0.24211959  0.05884470  0.25703148    -0.03100
C537        C  0.24813359  0.05084365  0.24968769     0.05500
C538        C  0.25389992  0.05800188  0.24138014     0.03600
H539        H  0.23638154  0.05663473  0.26449022     0.08700
H540        H  0.25933177  0.05498106  0.23397936     0.07500
N541        N  0.72939398  0.26764923  0.40824819    -0.26900
N542        N  0.72956126  0.25839868  0.40093244    -0.34700
C543        C  0.72352716  0.26116624  0.39095881     0.01500
C544        C  0.71938168  0.27279762  0.39186266     0.07500
C545        C  0.72326804  0.27668238  0.40296668    -0.05600
H546        H  0.72294529  0.25538259  0.38326565     0.08200
H547        H  0.72205302  0.28550280  0.40674749     0.09400
Cu548      Cu  0.74036056  0.24353558  0.40323095     0.44200
Cu549      Cu  0.73843538  0.26699318  0.42463012     0.42000
Cu550      Cu  0.76384329  0.24576526  0.42465355     0.43900
N551        N  0.75614852  0.23392261  0.40199853    -0.34300
N552        N  0.76547409  0.23562234  0.40907097    -0.28500
C553        C  0.77508615  0.22993236  0.40436493    -0.04600
C554        C  0.77144770  0.22426721  0.39397531     0.07600
C555        C  0.75941157  0.22694663  0.39283776     0.01400
H556        H  0.78402370  0.23000597  0.40813657     0.09000
H557        H  0.75363951  0.22469477  0.38542322     0.08100
N558        N  0.75742949  0.25459171  0.43984574    -0.35700
N559        N  0.74819624  0.26209532  0.43989336    -0.27900
C560        C  0.74581297  0.26524256  0.45125105    -0.03100
C561        C  0.75390799  0.25947915  0.45871851     0.05500
C562        C  0.76113610  0.25284408  0.45115340     0.03600
H563        H  0.73849245  0.27103238  0.45389619     0.08700
H564        H  0.76829775  0.24681324  0.45372690     0.07500
N565        N  0.74413789  0.27358096  0.59449411    -0.26900
N566        N  0.75266972  0.27260466  0.60262996    -0.34700
C567        C  0.74906960  0.27798791  0.61270021     0.01500
C568        C  0.73764342  0.28250771  0.61095398     0.07500
C569        C  0.73475079  0.27953461  0.59930685    -0.05600
H570        H  0.75418074  0.27806188  0.62089421     0.08200
H571        H  0.72641954  0.28144953  0.59472502     0.09400
Cu572      Cu  0.76790492  0.26217038  0.60069649     0.44200
Cu573      Cu  0.74606684  0.26629155  0.57741655     0.42000
Cu574      Cu  0.76927099  0.24274035  0.57564236     0.43900
N575        N  0.77887057  0.24722341  0.60016103    -0.34300
N576        N  0.77868737  0.23930305  0.59143655    -0.28500
C577        C  0.78525184  0.22966352  0.59477143    -0.04600
C578        C  0.78992023  0.23182966  0.60602837     0.07600
C579        C  0.78570041  0.24304509  0.60910167     0.01400
H580        H  0.78649350  0.22169612  0.58944717     0.09000
H581        H  0.78691903  0.24754897  0.61753778     0.08100
N582        N  0.76023012  0.24997582  0.56090288    -0.35700
N583        N  0.75182466  0.25836832  0.56148253    -0.27900
C584        C  0.74849163  0.26137238  0.55030280    -0.03100
C585        C  0.75516885  0.25465965  0.54230458     0.05500
C586        C  0.76248171  0.24752727  0.54936956     0.03600
H587        H  0.74200061  0.26826140  0.54814442     0.08700
H588        H  0.76919403  0.24121334  0.54635467     0.07500
N589        N  0.41157956  0.76630616  0.75963329    -0.26900
N590        N  0.40231651  0.76364805  0.75279728    -0.34700
C591        C  0.39252994  0.76945158  0.75666461     0.01500
C592        C  0.39560608  0.77599036  0.76658796     0.07500
C593        C  0.40778161  0.77378499  0.76832310    -0.05600
H594        H  0.38367659  0.76857579  0.75279539     0.08200
H595        H  0.41341973  0.77736402  0.77530201     0.09400
Cu596      Cu  0.40285250  0.75123892  0.73933254     0.44200
Cu597      Cu  0.42864792  0.75940000  0.75570333     0.42000
Cu598      Cu  0.42985419  0.73818021  0.72935563     0.43900
N599        N  0.40314465  0.73735489  0.72735912    -0.34300
N600        N  0.41305554  0.73251158  0.72305451    -0.28500
C601        C  0.40993395  0.72347443  0.71565757    -0.04600
C602        C  0.39747031  0.72259841  0.71562630     0.07600
C603        C  0.39355494  0.73148383  0.72317493     0.01400
H604        H  0.41621758  0.71760639  0.71119373     0.09000
H605        H  0.38436095  0.73343229  0.72562695     0.08100
N606        N  0.44471010  0.74495337  0.73870640    -0.35700
N607        N  0.44428243  0.75220413  0.74805532    -0.27900
C608        C  0.45559722  0.75455602  0.75162203    -0.03100
C609        C  0.46352469  0.74856079  0.74421812     0.05500
C610        C  0.45630432  0.74258687  0.73615967     0.03600
H611        H  0.45787126  0.76036422  0.75897889     0.08700
H612        H  0.45927113  0.73696095  0.72889624     0.07500
N613        N  0.59826398  0.75975039  0.76699883    -0.26900
N614        N  0.60612755  0.75091987  0.76613404    -0.34700
C615        C  0.61597077  0.75362502  0.77248352     0.01500
C616        C  0.61438294  0.76480038  0.77749820     0.07500
C617        C  0.60305148  0.76846832  0.77382512    -0.05600
H618        H  0.62406111  0.74825021  0.77266306     0.08200
H619        H  0.59876866  0.77696187  0.77568656     0.09400
Cu620      Cu  0.60464017  0.73712563  0.75400452     0.44200
Cu621      Cu  0.58183954  0.75921648  0.75795499     0.42000
Cu622      Cu  0.58235557  0.73978729  0.73136036     0.43900
N623        N  0.60596202  0.72866495  0.73771375    -0.34300
N624        N  0.59837830  0.73035318  0.72881500    -0.28500
C625        C  0.60287279  0.72502549  0.71896849    -0.04600
C626        C  0.61370667  0.71963615  0.72197196     0.07600
C627        C  0.61531411  0.72213343  0.73391168     0.01400
H628        H  0.59858958  0.72505366  0.71032126     0.09000
H629        H  0.62302373  0.71986601  0.73933339     0.08100
N630        N  0.56687053  0.74767777  0.73843192    -0.35700
N631        N  0.56662840  0.75456414  0.74802690    -0.27900
C632        C  0.55509281  0.75705920  0.75073598    -0.03100
C633        C  0.54772544  0.75147067  0.74251620     0.05500
C634        C  0.55551541  0.74565493  0.73483075     0.03600
H635        H  0.55225724  0.76217505  0.75841269     0.08700
H636        H  0.55311059  0.73992879  0.72745225     0.07500
N637        N  0.72808505  0.41167459  0.26508350    -0.26900
N638        N  0.72696906  0.40371878  0.25646709    -0.34700
C639        C  0.72019442  0.39457023  0.26036999     0.01500
C640        C  0.71706711  0.39676656  0.27207509     0.07500
C641        C  0.72223563  0.40768187  0.27482494    -0.05600
H642        H  0.71826151  0.38658327  0.25528441     0.08200
H643        H  0.72183508  0.41233247  0.28325737     0.09400
Cu644      Cu  0.73677127  0.40455126  0.24080149     0.44200
Cu645      Cu  0.73780859  0.42732934  0.26273220     0.42000
Cu646      Cu  0.76010529  0.42699695  0.23864389     0.43900
N647        N  0.75145073  0.40309636  0.22956531    -0.34300
N648        N  0.76058545  0.41065328  0.22933732    -0.28500
C649        C  0.76949796  0.40574650  0.22275181    -0.04600
C650        C  0.76565917  0.39467005  0.21859558     0.07600
C651        C  0.75417337  0.39338670  0.22306904     0.01400
H652        H  0.77820421  0.40978905  0.22133177     0.09000
H653        H  0.74847807  0.38558518  0.22234312     0.08100
N654        N  0.75537611  0.44234013  0.24847459    -0.35700
N655        N  0.74726295  0.44231127  0.25710163    -0.27900
C656        C  0.74563351  0.45356516  0.26104796    -0.03100
C657        C  0.75305145  0.46112669  0.25465037     0.05500
C658        C  0.75912804  0.45370691  0.24677642     0.03600
H659        H  0.73924505  0.45607300  0.26786184     0.08700
H660        H  0.76552883  0.45643257  0.24005136     0.07500
N661        N  0.73605600  0.59854739  0.26153660    -0.26900
N662        N  0.73815479  0.60629356  0.25284329    -0.34700
C663        C  0.73292146  0.61680592  0.25544271     0.01500
C664        C  0.72728768  0.61583964  0.26636439     0.07500
C665        C  0.72946351  0.60412017  0.27001561    -0.05600
H666        H  0.73362954  0.62475206  0.24996226     0.08200
H667        H  0.72658514  0.60000961  0.27826675     0.09400
Cu668      Cu  0.74940958  0.60336649  0.23844216     0.44200
Cu669      Cu  0.74275891  0.58085628  0.26114289     0.42000
Cu670      Cu  0.76737922  0.57753055  0.23945625     0.43900
N671        N  0.76392633  0.60091110  0.22717904    -0.34300
N672        N  0.77125962  0.59166342  0.22815853    -0.28500
C673        C  0.78067234  0.59324110  0.22077728    -0.04600
C674        C  0.77897027  0.60389609  0.21470584     0.07600
C675        C  0.76829156  0.60852369  0.21898259     0.01400
H676        H  0.78817478  0.58713464  0.21993847     0.09000
H677        H  0.76433726  0.61710412  0.21678088     0.08100
N678        N  0.76002276  0.56356771  0.24916890    -0.35700
N679        N  0.75110724  0.56441203  0.25693100    -0.27900
C680        C  0.74828296  0.55323794  0.26068894    -0.03100
C681        C  0.75574315  0.54508730  0.25494378     0.05500
C682        C  0.76303417  0.55202025  0.24776714     0.03600
H683        H  0.74110703  0.55116606  0.26684878     0.08700
H684        H  0.76985364  0.54890903  0.24164826     0.07500
N685        N  0.76752306  0.77240778  0.40402478    -0.26900
N686        N  0.76759822  0.76299001  0.39693720    -0.34700
C687        C  0.77401600  0.76545186  0.38712282     0.01500
C688        C  0.77817738  0.77707802  0.38786983     0.07500
C689        C  0.77384821  0.78128858  0.39871915    -0.05600
H690        H  0.77500738  0.75940556  0.37967060     0.08200
H691        H  0.77510314  0.79014264  0.40239752     0.09400
Cu692      Cu  0.75706750  0.74807753  0.39973544     0.44200
Cu693      Cu  0.75834018  0.77163868  0.42038294     0.42000
Cu694      Cu  0.73443051  0.74815351  0.42217736     0.43900
N695        N  0.74221330  0.73710792  0.39925229    -0.34300
N696        N  0.73311071  0.73766009  0.40677751    -0.28500
C697        C  0.72404404  0.73085736  0.40246134    -0.04600
C698        C  0.72783937  0.72573727  0.39181656     0.07600
C699        C  0.73937986  0.72990992  0.39017147     0.01400
H700        H  0.71533894  0.72987367  0.40662373     0.09000
H701        H  0.74505829  0.72848945  0.38248314    -0.22300
N702        N  0.74086028  0.75812176  0.43666428    -0.35700
N703        N  0.74941996  0.76635468  0.43608273    -0.27900
C704        C  0.75199237  0.77004401  0.44723837    -0.03100
C705        C  0.74475435  0.76388117  0.45521870     0.05500
C706        C  0.73780311  0.75645718  0.44817253     0.03600
H707        H  0.75888738  0.77649495  0.44939732     0.08700
H708        H  0.73128034  0.74997330  0.45123409     0.07500
N709        N  0.73633937  0.73594602  0.58681881    -0.26900
N710        N  0.74565797  0.73471991  0.59400171    -0.34700
C711        C  0.74300957  0.72669708  0.60254643     0.01500
C712        C  0.73137648  0.72279145  0.60081594     0.07500
C713        C  0.72737949  0.72883999  0.59075297    -0.05600
H714        H  0.74882959  0.72449726  0.60995374     0.08200
H715        H  0.71856244  0.72830369  0.58674826     0.09400
Cu716      Cu  0.76041914  0.74594282  0.59336562     0.44200
Cu717      Cu  0.73682894  0.74763772  0.57229142     0.42000
Cu718      Cu  0.76007682  0.77109975  0.57315090     0.43900
N719        N  0.77092725  0.76104384  0.59559336    -0.34300
N720        N  0.77014122  0.77082467  0.58896969    -0.28500
C721        C  0.77665707  0.77957151  0.59420342    -0.04600
C722        C  0.78189302  0.77489611  0.60444998     0.07600
C723        C  0.77809442  0.76316117  0.60495961     0.01400
H724        H  0.77744628  0.78863351  0.59087322     0.09000
H725        H  0.77981117  0.75680981  0.61205232     0.08100
N726        N  0.75032134  0.76643492  0.55782290    -0.35700
N727        N  0.74185477  0.75811319  0.55768014    -0.27900
C728        C  0.73815995  0.75647989  0.54638423    -0.03100
C729        C  0.74462301  0.76402030  0.53897022     0.05500
C730        C  0.75222216  0.77023535  0.54654571     0.03600
H731        H  0.73167841  0.74980433  0.54370844     0.08700
H732        H  0.75900995  0.77666366  0.54398208     0.07500
N733        N  0.74845059  0.40733005  0.72400134    -0.26900
N734        N  0.75618228  0.39850278  0.72571112    -0.34700
C735        C  0.75210774  0.38855085  0.72046904     0.01500
C736        C  0.74118409  0.39105304  0.71522866     0.07500
C737        C  0.73905830  0.40307319  0.71765209    -0.05600
H738        H  0.75651107  0.37992714  0.72102724     0.08200
H739        H  0.73123647  0.40825670  0.71515042     0.09400
Cu740      Cu  0.77085227  0.39922577  0.73686640     0.44200
Cu741      Cu  0.75166031  0.42438872  0.73102783     0.42000
Cu742      Cu  0.77441387  0.42452599  0.75531088     0.43900
N743        N  0.78131711  0.39881360  0.75200830    -0.34300
N744        N  0.78195003  0.40785524  0.75954513    -0.28500
C745        C  0.78795787  0.40419203  0.76935580    -0.04600
C746        C  0.79142128  0.39236973  0.76769433     0.07600
C747        C  0.78706842  0.38928724  0.75660810     0.01400
H748        H  0.78970092  0.40970295  0.77707302     0.09000
H749        H  0.78752579  0.38056997  0.75244187     0.08100
N750        N  0.76684909  0.43988666  0.74756378    -0.35700
N751        N  0.75871724  0.43984629  0.73893741    -0.27900
C752        C  0.75617695  0.45126108  0.73589817    -0.03100
C753        C  0.76300185  0.45885597  0.74288235     0.05500
C754        C  0.76966009  0.45132568  0.75016722     0.03600
H755        H  0.74991554  0.45384554  0.72898441     0.08700
H756        H  0.77617827  0.45394725  0.75680642     0.07500
N757        N  0.76986992  0.59242015  0.76450389    -0.26900
N758        N  0.76073797  0.59998951  0.76423087    -0.34700
C759        C  0.76300403  0.60919058  0.77157194     0.01500
C760        C  0.77416838  0.60747045  0.77664882     0.07500
C761        C  0.77830757  0.59672854  0.77198130    -0.05600
H762        H  0.75725513  0.61694420  0.77257329     0.08200
H763        H  0.78689929  0.59251872  0.77365796     0.09400
Cu764      Cu  0.74669440  0.59879089  0.75223575     0.44200
Cu765      Cu  0.77001775  0.57687490  0.75419622     0.42000
Cu766      Cu  0.74853678  0.57669500  0.72921995     0.43900
N767        N  0.73673628  0.59961092  0.73670331    -0.34300
N768        N  0.73795651  0.59205256  0.72773983    -0.28500
C769        C  0.73151460  0.59615848  0.71839013    -0.04600
C770        C  0.72594873  0.60674821  0.72176523     0.07600
C771        C  0.72942588  0.60858881  0.73341484     0.01400
H772        H  0.73108378  0.59187699  0.70976806     0.09000
H773        H  0.72732310  0.61625935  0.73890947     0.08100
N774        N  0.75793964  0.56166871  0.73523243    -0.35700
N775        N  0.76569829  0.56173047  0.74417482    -0.27900
C776        C  0.76908038  0.55037573  0.74651894    -0.03100
C777        C  0.76312502  0.54279620  0.73878255     0.05500
C778        C  0.75618365  0.55027739  0.73172067     0.03600
H779        H  0.77495594  0.54777276  0.75375148     0.08700
H780        H  0.74986959  0.54761364  0.72490672     0.07500
C781        C  0.69378767  0.68550702  0.66461589     0.86900
C782        C  0.68060915  0.68901242  0.66713026    -0.53300
C783        C  0.67716353  0.68692786  0.67867932     0.09800
C784        C  0.68714937  0.68149924  0.68648018     0.20800
C785        C  0.70111306  0.69234163  0.67398624    -0.54100
C786        C  0.69758675  0.69027970  0.68538072     0.09900
C787        C  0.69483273  0.67227019  0.66838080    -0.53600
C788        C  0.69160083  0.67017223  0.67996654     0.10500
H789        H  0.67476945  0.69312438  0.66055049     0.15000
H790        H  0.68439794  0.68001207  0.69584069     0.00700
H791        H  0.70849374  0.69830647  0.67178451     0.15300
H792        H  0.69872114  0.66542215  0.66270602     0.15100
N793        N  0.75900595  0.26983697  0.90430364    -0.26900
N794        N  0.75217982  0.26716176  0.89507331    -0.34700
C795        C  0.75727147  0.27129124  0.88505056     0.01500
C796        C  0.76773601  0.27712776  0.88801385     0.07500
C797        C  0.76861403  0.27609976  0.90033795    -0.05600
H798        H  0.75374225  0.26987846  0.87618617     0.08200
H799        H  0.77596459  0.27909051  0.90587602     0.09400
Cu800      Cu  0.73691447  0.25688847  0.89621523     0.44200
Cu801      Cu  0.75468845  0.26313423  0.92127711     0.42000
Cu802      Cu  0.73148036  0.23850254  0.92151859     0.43900
N803        N  0.72462230  0.24319796  0.89615063    -0.34300
N804        N  0.72325937  0.23541197  0.90491819    -0.28500
C805        C  0.71631701  0.22631278  0.90092698    -0.04600
C806        C  0.71303580  0.22879716  0.88920817     0.07600
C807        C  0.71845484  0.23956939  0.88658470     0.01400
H808        H  0.71401718  0.21842978  0.90605272     0.09000
H809        H  0.71868503  0.24401030  0.87801241     0.08100
N810        N  0.73969302  0.24598226  0.93670746    -0.35700
N811        N  0.74776380  0.25472070  0.93659075    -0.27900
C812        C  0.75062379  0.25751496  0.94792634    -0.03100
C813        C  0.74411073  0.25027541  0.95558062     0.05500
C814        C  0.73728570  0.24307533  0.94814096     0.03600
H815        H  0.75695553  0.26440296  0.95042476     0.08700
H816        H  0.73091501  0.23628764  0.95083553     0.07500
N817        N  0.75532767  0.27355906  0.09100266    -0.26900
N818        N  0.74675894  0.27251333  0.09909060    -0.34700
C819        C  0.75009561  0.27818942  0.10908741     0.01500
C820        C  0.76137492  0.28304718  0.10735917     0.07500
C821        C  0.76446255  0.27991273  0.09577844    -0.05600
H822        H  0.74486364  0.27832558  0.11720481     0.08200
H823        H  0.77276618  0.28198611  0.09122486     0.09400
Cu824      Cu  0.73161696  0.26199049  0.09708290     0.44200
Cu825      Cu  0.75375117  0.26574737  0.07404917     0.42000
Cu826      Cu  0.73104203  0.24168506  0.07264013     0.43900
N827        N  0.72014223  0.24747401  0.09636237    -0.34300
N828        N  0.72061335  0.23921416  0.08796293    -0.28500
C829        C  0.71370387  0.22985511  0.09132232    -0.04600
C830        C  0.70850852  0.23258050  0.10223106     0.07600
C831        C  0.71275311  0.24381189  0.10507764     0.01400
H832        H  0.71272768  0.22163307  0.08634158     0.09000
H833        H  0.71131259  0.24858112  0.11333581     0.08100
N834        N  0.74078264  0.24803484  0.05796278    -0.35700
N835        N  0.74881207  0.25677596  0.05833306    -0.27900
C836        C  0.75252641  0.25914034  0.04711077    -0.03100
C837        C  0.74655551  0.25155102  0.03932527     0.05500
C838        C  0.73924509  0.24464461  0.04655628     0.03600
H839        H  0.75884135  0.26610846  0.04476702     0.08700
H840        H  0.73291408  0.23790690  0.04367825     0.07500
N841        N  0.90768806  0.76453213  0.26787861    -0.26900
N842        N  0.89820876  0.75940816  0.26300463    -0.34700
C843        C  0.88820252  0.76333648  0.26835717     0.01500
C844        C  0.89138202  0.77157954  0.27688728     0.07500
C845        C  0.90384281  0.77222374  0.27637036    -0.05600
H846        H  0.87919577  0.76068082  0.26590899     0.08200
H847        H  0.90963801  0.77770763  0.28182872     0.09400
Cu848      Cu  0.89889939  0.74820981  0.24850724     0.44200
Cu849      Cu  0.92504228  0.75979448  0.26233267     0.42000
Cu850      Cu  0.92630859  0.73806913  0.23654831     0.43900
N851        N  0.89979529  0.73780872  0.23344011    -0.34300
N852        N  0.90988348  0.73341733  0.22907535    -0.28500
C853        C  0.90722872  0.72628862  0.21973868    -0.04600
C854        C  0.89488571  0.72653671  0.21811467     0.07600
C855        C  0.89051189  0.73393368  0.22692588     0.01400
H856        H  0.91375319  0.72139440  0.21451776     0.09000
H857        H  0.88119895  0.73601855  0.22874375     0.08100
N858        N  0.94100247  0.74463451  0.24594114    -0.35700
N859        N  0.94065242  0.75224155  0.25499779    -0.27900
C860        C  0.95198015  0.75428930  0.25868809    -0.03100
C861        C  0.95976613  0.74772145  0.25164921     0.05500
C862        C  0.95250194  0.74172043  0.24368352     0.03600
H863        H  0.95437380  0.76015638  0.26596278     0.08700
H864        H  0.95533499  0.73569151  0.23669506     0.07500
N865        N  0.09386737  0.76912502  0.26826383    -0.26900
N866        N  0.10140779  0.76906179  0.25917811    -0.34700
C867        C  0.11093589  0.77589773  0.26176342     0.01500
C868        C  0.10951069  0.78039498  0.27310475     0.07500
C869        C  0.09856783  0.77593188  0.27703784    -0.05600
H870        H  0.11869281  0.77694234  0.25605156     0.08200
H871        H  0.09443015  0.77738421  0.28563266     0.09400
Cu872      Cu  0.09989635  0.75780870  0.24471247     0.44200
Cu873      Cu  0.07778347  0.75957862  0.26753028     0.42000
Cu874      Cu  0.07752308  0.73521029  0.24514014     0.43900
N875        N  0.10090794  0.74249183  0.23451774    -0.34300
N876        N  0.09310488  0.73362235  0.23518009    -0.28500
C877        C  0.09711935  0.72440113  0.22853555    -0.04600
C878        C  0.10793800  0.72777317  0.22344938     0.07600
C879        C  0.11002087  0.73926705  0.22740796     0.01400
H880        H  0.09254375  0.71592601  0.22752910     0.09000
H881        H  0.11783515  0.74473206  0.22562779     0.08100
N882        N  0.06244725  0.74176165  0.25381811    -0.35700
N883        N  0.06246238  0.75047623  0.26180625    -0.27900
C884        C  0.05101265  0.75327827  0.26449475    -0.03100
C885        C  0.04348718  0.74604375  0.25784354     0.05500
C886        C  0.05103385  0.73884564  0.25122886     0.03600
H887        H  0.04838595  0.76044072  0.27042296     0.08700
H888        H  0.04842986  0.73232708  0.24460198     0.07500
N889        N  0.27290816  0.89874416  0.76866492    -0.26900
N890        N  0.26512030  0.88982610  0.76862102    -0.34700
C891        C  0.26971187  0.88049033  0.77466610     0.01500
C892        C  0.28101942  0.88356627  0.77859562     0.07500
C893        C  0.28282670  0.89520271  0.77464954    -0.05600
H894        H  0.26529406  0.87193729  0.77577579     0.08200
H895        H  0.29068705  0.90068914  0.77609123     0.09400
Cu896      Cu  0.24946036  0.89000504  0.75878207     0.44200
Cu897      Cu  0.26897229  0.91512008  0.76041704     0.42000
Cu898      Cu  0.24505012  0.91359466  0.73753266     0.43900
N899        N  0.23802612  0.88854470  0.74439601    -0.34300
N900        N  0.23696218  0.89666332  0.73587474    -0.28500
C901        C  0.23034025  0.89191527  0.72694538    -0.04600
C902        C  0.22703484  0.88034241  0.73018181     0.07600
C903        C  0.23206164  0.87860878  0.74129612     0.01400
H904        H  0.22821901  0.89646186  0.71869009     0.09000
H905        H  0.23199484  0.87044501  0.74649916     0.08100
N906        N  0.25319112  0.92952406  0.74342188    -0.35700
N907        N  0.26160268  0.93006955  0.75175865    -0.27900
C908        C  0.26412515  0.94166841  0.75397724    -0.03100
C909        C  0.25704668  0.94880029  0.74669635     0.05500
C910        C  0.25025732  0.94077718  0.74011133     0.03600
H911        H  0.27050862  0.94469835  0.76057517     0.08700
H912        H  0.24340569  0.94295854  0.73362950     0.07500
N913        N  0.26170403  0.08586741  0.76669773    -0.26900
N914        N  0.25301459  0.09379559  0.76517356    -0.34700
C915        C  0.25623092  0.10427017  0.77005435     0.01500
C916        C  0.26758568  0.10309000  0.77483378     0.07500
C917        C  0.27084467  0.09125718  0.77256503    -0.05600
H918        H  0.25088953  0.11236307  0.76964629     0.08200
H919        H  0.27925543  0.08696957  0.77484535     0.09400
Cu920      Cu  0.23803022  0.09091163  0.75473208     0.44200
Cu921      Cu  0.25996434  0.06839031  0.75986664     0.42000
Cu922      Cu  0.23758332  0.06585640  0.73522749     0.43900
N923        N  0.22661941  0.08976158  0.74028619    -0.34300
N924        N  0.22708652  0.08110286  0.73229982    -0.28500
C925        C  0.21984209  0.08404138  0.72308408    -0.04600
C926        C  0.21443584  0.09494683  0.72562586     0.07600
C927        C  0.21894415  0.09825421  0.73658581     0.01400
H928        H  0.21863030  0.07868748  0.71515797     0.09000
H929        H  0.21731549  0.10658542  0.74121973     0.08100
N930        N  0.24692384  0.05144716  0.74277374    -0.35700
N931        N  0.25468968  0.05223851  0.75169422    -0.27900
C932        C  0.25825427  0.04107775  0.75472692    -0.03100
C933        C  0.25251220  0.03289907  0.74738576     0.05500
C934        C  0.24543461  0.03982158  0.73993306     0.03600
H935        H  0.26449091  0.03906554  0.76184197     0.08700
H936        H  0.23942768  0.03661908  0.73307317     0.07500
N937        N  0.27634714  0.75845039  0.91153452    -0.26900
N938        N  0.27746017  0.74908755  0.90446102    -0.34700
C939        C  0.28480368  0.75184928  0.89538152     0.01500
C940        C  0.28836806  0.76361314  0.89663008     0.07500
C941        C  0.28283921  0.76757697  0.90698763    -0.05600
H942        H  0.28657457  0.74605314  0.88787151     0.08200
H943        H  0.28319609  0.77649398  0.91071320     0.09400
Cu944      Cu  0.26619390  0.73449652  0.90550662     0.44200
Cu945      Cu  0.26535382  0.75767789  0.92654863     0.42000
Cu946      Cu  0.24138886  0.73485351  0.92605074     0.43900
N947        N  0.25009106  0.72602517  0.90224782    -0.34300
N948        N  0.24049698  0.72664658  0.90916360    -0.28500
C949        C  0.23106369  0.72197099  0.90313943    -0.04600
C950        C  0.23506732  0.71829012  0.89196821     0.07600
C951        C  0.24713527  0.72098195  0.89183139     0.01400
H952        H  0.22196045  0.72159603  0.90647976     0.09000
H953        H  0.25323081  0.71998876  0.88439091     0.08100
N954        N  0.24689545  0.74416207  0.94145962    -0.35700
N955        N  0.25549188  0.75235996  0.94144794    -0.27900
C956        C  0.25750222  0.75598372  0.95269979    -0.03100
C957        C  0.24983269  0.74989073  0.96024240     0.05500
C958        C  0.24319714  0.74247465  0.95280987     0.03600
H959        H  0.26433068  0.76236483  0.95524749     0.08700
H960        H  0.23649711  0.73600824  0.95550115     0.07500
N961        N  0.26366206  0.77118870  0.09580819    -0.26900
N962        N  0.25464519  0.77074450  0.10347031    -0.34700
C963        C  0.25771123  0.77653340  0.11348105     0.01500
C964        C  0.26929105  0.78076411  0.11225457     0.07500
C965        C  0.27284707  0.77718735  0.10093858    -0.05600
H966        H  0.25208875  0.77712229  0.12131844     0.08200
H967        H  0.28144421  0.77882766  0.09676271     0.09400
Cu968      Cu  0.23936656  0.76048577  0.10131544     0.44200
Cu969      Cu  0.26248785  0.76339842  0.07878521     0.42000
Cu970      Cu  0.23938642  0.74010860  0.07721009     0.43900
N971        N  0.22885217  0.74526018  0.10109987    -0.34300
N972        N  0.22963063  0.73706460  0.09267113    -0.28500
C973        C  0.22336283  0.72731320  0.09605698    -0.04600
C974        C  0.21829518  0.72965104  0.10707297     0.07600
C975        C  0.22190051  0.74110533  0.10995491     0.01400
H976        H  0.22261148  0.71915672  0.09093355     0.09000
H977        H  0.22018679  0.74580108  0.11820379     0.08100
N978        N  0.24840374  0.74689426  0.06247097    -0.35700
N979        N  0.25686998  0.75520143  0.06285229    -0.27900
C980        C  0.26011676  0.75792300  0.05156569    -0.03100
C981        C  0.25326570  0.75109214  0.04378525     0.05500
C982        C  0.24598461  0.74423600  0.05104438     0.03600
H983        H  0.26659705  0.76472784  0.04919264     0.08700
H984        H  0.23914581  0.73798618  0.04821658     0.07500
N985        N  0.90978529  0.25601573  0.77915171    -0.26900
N986        N  0.90196471  0.24717353  0.77843669    -0.34700
C987        C  0.89189063  0.25015352  0.78426767     0.01500
C988        C  0.89329217  0.26150217  0.78891045     0.07500
C989        C  0.90477447  0.26499599  0.78550601    -0.05600
H990        H  0.88383784  0.24475164  0.78438333     0.08200
H991        H  0.90896720  0.27356910  0.78713239     0.09400
Cu992      Cu  0.90396999  0.23272946  0.76731147     0.44200
Cu993      Cu  0.92632930  0.25493125  0.77030026     0.42000
Cu994      Cu  0.92656489  0.23294936  0.74518431     0.43900
N995        N  0.90250225  0.22327409  0.75171860    -0.34300
N996        N  0.91030762  0.22384818  0.74288704    -0.28500
C997        C  0.90540447  0.21855695  0.73321322    -0.04600
C998        C  0.89399072  0.21452818  0.73626080     0.07600
C999        C  0.89256499  0.21765320  0.74806201     0.01400
H1000       H  0.90958706  0.21813712  0.72452670     0.09000
H1001       H  0.88454438  0.21673315  0.75341389     0.08100
N1002       N  0.94166542  0.24195417  0.75178639    -0.35700
N1003       N  0.94163719  0.24977577  0.76066297    -0.27900
C1004       C  0.95305163  0.25317265  0.76285839    -0.03100
C1005       C  0.96061120  0.24719086  0.75506283     0.05500
C1006       C  0.95307279  0.24019339  0.74819950     0.03600
H1007       H  0.95567193  0.25927261  0.76985931     0.08700
H1008       H  0.95572323  0.23402285  0.74126054     0.07500
N1009       N  0.09820975  0.26271216  0.76093068    -0.26900
N1010       N  0.10720145  0.25814013  0.75474359    -0.34700
C1011       C  0.11765146  0.26220100  0.75904526     0.01500
C1012       C  0.11525898  0.26988367  0.76834786     0.07500
C1013       C  0.10281053  0.27009524  0.76930247    -0.05600
H1014       H  0.12638084  0.25972703  0.75559876     0.08200
H1015       H  0.09754495  0.27495280  0.77579503     0.09400
Cu1016     Cu  0.10526797  0.24636892  0.74083931     0.44200
Cu1017     Cu  0.08039875  0.25752997  0.75755412     0.42000
Cu1018     Cu  0.07746550  0.23254424  0.73525316     0.43900
N1019       N  0.10324257  0.23324372  0.72821812    -0.34300
N1020       N  0.09314532  0.22732968  0.72646129    -0.28500
C1021       C  0.09518640  0.21863008  0.71834921    -0.04600
C1022       C  0.10709832  0.21942385  0.71477988     0.07600
C1023       C  0.11186067  0.22878316  0.72118223     0.01400
H1024       H  0.08851447  0.21236899  0.71518252     0.09000
H1025       H  0.12105941  0.23188903  0.72103407     0.08100
N1026       N  0.06326017  0.24087759  0.74419640    -0.35700
N1027       N  0.06415108  0.24972892  0.75200920    -0.27900
C1028       C  0.05299237  0.25283448  0.75558920    -0.03100
C1029       C  0.04473184  0.24565197  0.74976599     0.05500
C1030       C  0.05158999  0.23820825  0.74263930     0.03600
H1031       H  0.05103164  0.25986341  0.76191615     0.08700
H1032       H  0.04835051  0.23136765  0.73664592     0.07500
N1033       N  0.72937306  0.76192437  0.90929651    -0.26900
N1034       N  0.72923529  0.75295167  0.90165195    -0.34700
C1035       C  0.72215942  0.75578778  0.89239201     0.01500
C1036       C  0.71766960  0.76718631  0.89414251     0.07500
C1037       C  0.72245958  0.77087038  0.90494450    -0.05600
H1038       H  0.72107101  0.75028037  0.88455124     0.08200
H1039       H  0.72125896  0.77949187  0.90915727     0.09400
Cu1040     Cu  0.74063495  0.73842027  0.90271665     0.44200
Cu1041     Cu  0.73959165  0.76102694  0.92490064     0.42000
Cu1042     Cu  0.76335859  0.73765879  0.92511273     0.43900
N1043       N  0.75590345  0.72803566  0.90144271    -0.34300
N1044       N  0.76478651  0.72813191  0.90924083    -0.28500
C1045       C  0.77412665  0.72189217  0.90470517    -0.04600
C1046       C  0.77081236  0.71771660  0.89354639     0.07600
C1047       C  0.75922659  0.72173704  0.89185180     0.01400
H1048       H  0.78275436  0.72083378  0.90900999     0.09000
H1049       H  0.75384456  0.72079167  0.88388573     0.08100
N1050       N  0.75805752  0.74760276  0.93991996    -0.35700
N1051       N  0.74965724  0.75602435  0.93985538    -0.27900
C1052       C  0.74802685  0.75995429  0.95108234    -0.03100
C1053       C  0.75568849  0.75367913  0.95855908     0.05500
C1054       C  0.76191121  0.74596316  0.95117315     0.03600
H1055       H  0.74138270  0.76653147  0.95366207     0.08700
H1056       H  0.76847871  0.73932944  0.95383960     0.07500
N1057       N  0.74978748  0.77529371  0.09324085    -0.26900
N1058       N  0.75814371  0.77391954  0.10148237    -0.34700
C1059       C  0.75457206  0.77923303  0.11158734     0.01500
C1060       C  0.74332353  0.78411875  0.10975091     0.07500
C1061       C  0.74050271  0.78143528  0.09801274    -0.05600
H1062       H  0.75947928  0.77886970  0.11989786     0.08200
H1063       H  0.73224251  0.78354813  0.09338964     0.09400
Cu1064     Cu  0.77273093  0.76270262  0.09962998     0.44200
Cu1065     Cu  0.75178067  0.76775818  0.07631673     0.42000
Cu1066     Cu  0.77291527  0.74202624  0.07547657     0.43900
N1067       N  0.78275771  0.74718823  0.09966331    -0.34300
N1068       N  0.78225307  0.73891915  0.09128622    -0.28500
C1069       C  0.78826248  0.72911205  0.09510269    -0.04600
C1070       C  0.79281201  0.73150484  0.10635693     0.07600
C1071       C  0.78914796  0.74303509  0.10889281     0.01400
H1072       H  0.78903177  0.72082141  0.09019368     0.09000
H1073       H  0.79034154  0.74781386  0.11717717     0.08100
N1074       N  0.76423417  0.74929072  0.06064072    -0.35700
N1075       N  0.75683923  0.75859948  0.06085369    -0.27900
C1076       C  0.75354384  0.76124309  0.04959251    -0.03100
C1077       C  0.75909574  0.75324573  0.04195315     0.05500
C1078       C  0.76578046  0.74580174  0.04927490     0.03600
H1079       H  0.74769245  0.76858461  0.04713062     0.08700
H1080       H  0.77158149  0.73853128  0.04654475     0.07500
N1081       N  0.77113373  0.90220274  0.73572633    -0.26900
N1082       N  0.76996689  0.89518839  0.74514640    -0.34700
C1083       C  0.77581419  0.88484321  0.74327044     0.01500
C1084       C  0.78093565  0.88518362  0.73206327     0.07500
C1085       C  0.77779562  0.89635639  0.72749548    -0.05600
H1086       H  0.77567283  0.87732327  0.74935739     0.08200
H1087       H  0.77984008  0.89978370  0.71870853     0.09400
Cu1088     Cu  0.75847226  0.89868773  0.75912974     0.44200
Cu1089     Cu  0.76245442  0.91895276  0.73498224     0.42000
Cu1090     Cu  0.73605169  0.92092669  0.75540348     0.43900
N1091       N  0.74292074  0.89897929  0.76908842    -0.34300
N1092       N  0.73385187  0.90634540  0.76705788    -0.28500
C1093       C  0.72424788  0.90250405  0.77340507    -0.04600
C1094       C  0.72766329  0.89235882  0.77979750     0.07600
C1095       C  0.73954132  0.89051692  0.77686730     0.01400
H1096       H  0.71544877  0.90661816  0.77321633     0.09000
H1097       H  0.74509096  0.88300534  0.77951157     0.08100
N1098       N  0.74296587  0.93523055  0.74529262    -0.35700
N1099       N  0.75244513  0.93466723  0.73815605    -0.27900
C1100       C  0.75493657  0.94582238  0.73415465    -0.03100
C1101       C  0.74670741  0.95379211  0.73899868     0.05500
C1102       C  0.73925436  0.94670448  0.74595537     0.03600
H1103       H  0.76247916  0.94804374  0.72849718     0.08700
H1104       H  0.73193773  0.94973168  0.75152854     0.07500
N1105       N  0.77222784  0.08998859  0.73016775    -0.26900
N1106       N  0.77192999  0.09706642  0.73957162    -0.34700
C1107       C  0.77738358  0.10744977  0.73704448     0.01500
C1108       C  0.78139067  0.10711912  0.72541262     0.07500
C1109       C  0.77797458  0.09586596  0.72126142    -0.05600
H1110       H  0.77783927  0.11493476  0.74312249     0.08200
H1111       H  0.77933480  0.09235130  0.71239269     0.09400
Cu1112     Cu  0.76213654  0.09369844  0.75472014     0.44200
Cu1113     Cu  0.76388513  0.07302637  0.73085488     0.42000
Cu1114     Cu  0.74002405  0.07124364  0.75434945     0.43900
N1115       N  0.74739150  0.09422815  0.76569066    -0.34300
N1116       N  0.73836003  0.08662152  0.76496876    -0.28500
C1117       C  0.72915976  0.09089999  0.77160781    -0.04600
C1118       C  0.73281013  0.10158776  0.77681815     0.07600
C1119       C  0.74439830  0.10333311  0.77285196     0.01400
H1120       H  0.72045559  0.08669047  0.77241987     0.09000
H1121       H  0.74996581  0.11111537  0.77436203     0.08100
N1122       N  0.74622592  0.05670589  0.74414693    -0.35700
N1123       N  0.75476738  0.05720655  0.73591365    -0.27900
C1124       C  0.75692679  0.04597908  0.73193939    -0.03100
C1125       C  0.74942130  0.03805103  0.73791060     0.05500
C1126       C  0.74278021  0.04521421  0.74552318     0.03600
H1127       H  0.76365528  0.04372410  0.72536354     0.08700
H1128       H  0.73613625  0.04222469  0.75189686     0.07500
N1129       N  0.90863313  0.76234102  0.73977178    -0.26900
N1130       N  0.90172863  0.76187711  0.74932552    -0.34700
C1131       C  0.89115155  0.76714621  0.74701421     0.01500
C1132       C  0.89122891  0.77119711  0.73538751     0.07500
C1133       C  0.90249949  0.76802935  0.73101829    -0.05600
H1134       H  0.88371861  0.76741727  0.75320803     0.08200
H1135       H  0.90581610  0.76941186  0.72206450     0.09400
Cu1136     Cu  0.90564305  0.75192394  0.76426438     0.44200
Cu1137     Cu  0.92566287  0.75415953  0.73986229     0.42000
Cu1138     Cu  0.92785996  0.72947208  0.76219015     0.43900
N1139       N  0.90536648  0.73671773  0.77459985    -0.34300
N1140       N  0.91276468  0.72759715  0.77308490    -0.28500
C1141       C  0.90856125  0.71814169  0.77935775    -0.04600
C1142       C  0.89815757  0.72170741  0.78519332     0.07600
C1143       C  0.89647306  0.73351216  0.78196897     0.01400
H1144       H  0.91264224  0.70934580  0.77952128     0.09000
H1145       H  0.88883210  0.73910943  0.78409906     0.08100
N1146       N  0.94233488  0.73652412  0.75258791    -0.35700
N1147       N  0.94167626  0.74534295  0.74468153    -0.27900
C1148       C  0.95291973  0.74818874  0.74116329    -0.03100
C1149       C  0.96101241  0.74089861  0.74715739     0.05500
C1150       C  0.95394948  0.73361329  0.75427668     0.03600
H1151       H  0.95507471  0.75533279  0.73500500     0.08700
H1152       H  0.95703144  0.72693239  0.76056578     0.07500
N1153       N  0.09715492  0.76310442  0.73391349    -0.26900
N1154       N  0.10405123  0.76365303  0.74347264    -0.34700
C1155       C  0.11445669  0.76897615  0.74067373     0.01500
C1156       C  0.11425383  0.77191447  0.72872640     0.07500
C1157       C  0.10313509  0.76805620  0.72466261    -0.05600
H1158       H  0.12191554  0.76994030  0.74676528     0.08200
H1159       H  0.09977388  0.76856080  0.71563578     0.09400
Cu1160     Cu  0.10070622  0.75462798  0.75913197     0.44200
Cu1161     Cu  0.08026722  0.75495215  0.73455820     0.42000
Cu1162     Cu  0.07922979  0.73149381  0.75760173     0.43900
N1163       N  0.10189507  0.73935283  0.76935311    -0.34300
N1164       N  0.09478203  0.73001483  0.76792612    -0.28500
C1165       C  0.09950741  0.72060946  0.77391610    -0.04600
C1166       C  0.10997431  0.72441435  0.77946251     0.07600
C1167       C  0.11113076  0.73631777  0.77639997     0.01400
H1168       H  0.09571989  0.71169759  0.77409565     0.09000
H1169       H  0.11862160  0.74212600  0.77843203     0.08100
N1170       N  0.06416915  0.73814794  0.74858865    -0.35700
N1171       N  0.06445506  0.74663797  0.74033040    -0.27900
C1172       C  0.05307851  0.74950320  0.73728037    -0.03100
C1173       C  0.04527599  0.74252124  0.74395558     0.05500
C1174       C  0.05263930  0.73543485  0.75097496     0.03600
H1175       H  0.05067658  0.75643336  0.73096514     0.08700
H1176       H  0.04980556  0.72904034  0.75765623     0.07500
C1177       C  0.82896822  0.68684653  0.81404976     0.86900
C1178       C  0.82486644  0.67410776  0.81064083    -0.53300
C1179       C  0.81278805  0.67229515  0.81198318     0.09800
C1180       C  0.80605358  0.68336982  0.81671712     0.20800
C1181       C  0.82106199  0.69531279  0.80658838    -0.54100
C1182       C  0.80907714  0.69344381  0.80793879     0.09900
C1183       C  0.82458564  0.68859891  0.82692585    -0.53600
C1184       C  0.81250273  0.68698602  0.82831402     0.10500
H1185       H  0.83084386  0.66723656  0.80725150     0.15000
H1186       H  0.79631301  0.68200764  0.81779708     0.00700
H1187       H  0.82466369  0.70213352  0.80067239     0.15300
H1188       H  0.83038746  0.69159748  0.83409548     0.15100
C1189       C  0.81097247  0.80219863  0.67666393     0.86900
C1190       C  0.82342595  0.79935316  0.68171968    -0.53300
C1191       C  0.82436176  0.80080229  0.69378300     0.09800
C1192       C  0.81260150  0.80528502  0.69965827     0.20800
C1193       C  0.80229482  0.79452298  0.68395123    -0.54100
C1194       C  0.80294567  0.79615737  0.69598297     0.09900
C1195       C  0.80836360  0.81510596  0.68060609    -0.53600
C1196       C  0.80917347  0.81679460  0.69269743     0.10500
H1197       H  0.83069125  0.79600776  0.67620800     0.15000
H1198       H  0.81326243  0.80655361  0.70944405     0.00700
H1199       H  0.79606651  0.78836852  0.67976395     0.15300
H1200       H  0.80578881  0.82211408  0.67440631     0.15100
C1201       C  0.69365884  0.82358617  0.81171362     0.86900
C1202       C  0.69411297  0.82042569  0.82502753    -0.53300
C1203       C  0.69161564  0.80867874  0.82746576     0.09800
C1204       C  0.68860881  0.80126156  0.81627716     0.20800
C1205       C  0.70215562  0.81456474  0.80574968    -0.54100
C1206       C  0.69950534  0.80290473  0.80805607     0.09900
C1207       C  0.68099887  0.81984579  0.80761506    -0.53600
C1208       C  0.67836030  0.80806066  0.80997247     0.10500
H1209       H  0.69668092  0.82685410  0.83179135     0.15000
H1210       H  0.68655801  0.79172905  0.81821573     0.00700
H1211       H  0.70950218  0.81721009  0.79994551     0.15300
H1212       H  0.67492771  0.82584390  0.80295550     0.15100
N1213       N  0.73595906  0.91280146  0.22817476    -0.26900
N1214       N  0.74573339  0.90615416  0.22714676    -0.34700
C1215       C  0.74330668  0.89652687  0.22044117     0.01500
C1216       C  0.73137289  0.89691423  0.21716746     0.07500
C1217       C  0.72692766  0.90739125  0.22220404    -0.05600
H1218       H  0.74955240  0.88927152  0.21885149     0.08200
H1219       H  0.71776165  0.91060002  0.22191216     0.09400
Cu1220     Cu  0.76098497  0.90845433  0.23735320     0.44200
Cu1221     Cu  0.73596285  0.92841413  0.23853703     0.42000
Cu1222     Cu  0.75978022  0.92916779  0.26145397     0.43900
N1223       N  0.77172496  0.90690375  0.25228432    -0.34300
N1224       N  0.77065713  0.91382889  0.26175640    -0.28500
C1225       C  0.77708912  0.90894045  0.27075085    -0.04600
C1226       C  0.78256034  0.89857010  0.26659521     0.07600
C1227       C  0.77896361  0.89762664  0.25486015     0.01400
H1228       H  0.77748701  0.91247053  0.27970640     0.09000
H1229       H  0.78070057  0.89022423  0.24889893     0.08100
N1230       N  0.74889210  0.94383377  0.25690698    -0.35700
N1231       N  0.74030808  0.94354024  0.24873455    -0.27900
C1232       C  0.73580855  0.95467880  0.24735249    -0.03100
C1233       C  0.74185588  0.96238758  0.25493298     0.05500
C1234       C  0.75004875  0.95517333  0.26086417     0.03600
H1235       H  0.72902392  0.95708049  0.24087720     0.08700
H1236       H  0.75673502  0.95805772  0.26722767     0.07500
N1237       N  0.76433128  0.09787416  0.26274948    -0.26900
N1238       N  0.76335701  0.10568821  0.25395357    -0.34700
C1239       C  0.76951317  0.11561874  0.25663960     0.01500
C1240       C  0.77461998  0.11415765  0.26774818     0.07500
C1241       C  0.77113873  0.10278506  0.27143312    -0.05600
H1242       H  0.76968627  0.12358404  0.25114258     0.08200
H1243       H  0.77323616  0.09850283  0.27983236     0.09400
Cu1244     Cu  0.75194291  0.10377148  0.23969225     0.44200
Cu1245     Cu  0.75572648  0.08122158  0.26176950     0.42000
Cu1246     Cu  0.73063723  0.08023388  0.23982170     0.43900
N1247       N  0.73648018  0.10436832  0.22970801    -0.34300
N1248       N  0.72793620  0.09619339  0.23029236    -0.28500
C1249       C  0.71823727  0.10032897  0.22430520    -0.04600
C1250       C  0.72104560  0.11152364  0.21966567     0.07600
C1251       C  0.73262230  0.11376551  0.22330455     0.01400
H1252       H  0.70972729  0.09571824  0.22366266     0.09000
H1253       H  0.73761015  0.12198074  0.22205824     0.08100
N1254       N  0.73767923  0.06527393  0.24880881    -0.35700
N1255       N  0.74664553  0.06562299  0.25657382    -0.27900
C1256       C  0.74928911  0.05434031  0.26000752    -0.03100
C1257       C  0.74166657  0.04649485  0.25416817     0.05500
C1258       C  0.73443720  0.05375892  0.24716697     0.03600
H1259       H  0.75640502  0.05201671  0.26615274     0.08700
H1260       H  0.72747249  0.05085867  0.24111256     0.07500
C1261       C  0.68081491  0.81096395  0.18851134     0.86900
C1262       C  0.68518770  0.80843789  0.17574843    -0.53300
C1263       C  0.69710459  0.81073717  0.17398078     0.09800
C1264       C  0.70346733  0.81565088  0.18510792     0.20800
C1265       C  0.68933540  0.80385081  0.19661181    -0.54100
C1266       C  0.70117044  0.80621522  0.19479192     0.09900
C1267       C  0.68404538  0.82414317  0.19080204    -0.53600
C1268       C  0.69598053  0.82666173  0.18905742     0.10500
H1269       H  0.67942066  0.80467301  0.16893245     0.15000
H1270       H  0.71314719  0.81741971  0.18371070     0.00700
H1271       H  0.68624484  0.79730696  0.20309840     0.15300
H1272       H  0.67758423  0.83076927  0.19380788     0.15100
C1273       C  0.19688054  0.80067593  0.67137674     0.86900
C1274       C  0.19841811  0.81378661  0.67525966    -0.53300
C1275       C  0.19624704  0.81570126  0.68712760     0.09800
C1276       C  0.19241695  0.80428425  0.69390395     0.20800
C1277       C  0.20496369  0.79357252  0.67989897    -0.54100
C1278       C  0.20270816  0.79547624  0.69163469     0.09900
C1279       C  0.18398826  0.79733077  0.67504604    -0.53600
C1280       C  0.18165419  0.79916218  0.68690503     0.10500
H1281       H  0.20170525  0.82068603  0.66927947     0.15000
H1282       H  0.19065699  0.80576976  0.70352543     0.00700
H1283       H  0.21224648  0.78783786  0.67687706     0.15300
H1284       H  0.17746376  0.79355678  0.66896974     0.15100
C1285       C  0.81662066  0.18959387  0.67136285     0.86900
C1286       C  0.81343600  0.17652699  0.67448002    -0.53300
C1287       C  0.81410187  0.17407645  0.68647873     0.09800
C1288       C  0.81810424  0.18491062  0.69409001     0.20800
C1289       C  0.80823979  0.19712476  0.67917095    -0.54100
C1290       C  0.80895346  0.19473016  0.69104115     0.09900
C1291       C  0.82918293  0.19154036  0.67658074    -0.53600
C1292       C  0.83000090  0.18926208  0.68850994     0.10500
H1293       H  0.81044625  0.17005045  0.66794583     0.15000
H1294       H  0.81870097  0.18297516  0.70377518     0.00700
H1295       H  0.80214500  0.20380701  0.67552837     0.15300
H1296       H  0.83656814  0.19507096  0.67134274     0.15100
C1297       C  0.69706580  0.17067193  0.80570604     0.86900
C1298       C  0.68469818  0.17488146  0.80111420    -0.53300
C1299       C  0.68260543  0.18684779  0.80287467     0.09800
C1300       C  0.69298593  0.19338757  0.80922892     0.20800
C1301       C  0.70611995  0.17901423  0.79964790    -0.54100
C1302       C  0.70411717  0.19088304  0.80148075     0.09900
C1303       C  0.69731912  0.17429445  0.81888489    -0.53600
C1304       C  0.69520673  0.18621793  0.82080196     0.10500
H1305       H  0.67839282  0.16913890  0.79650726     0.15000
H1306       H  0.69122337  0.20304052  0.81075485     0.00700
H1307       H  0.71360476  0.17572330  0.79436471     0.15300
H1308       H  0.69924219  0.16796865  0.82598402     0.15100
C1309       C  0.18090887  0.69186847  0.80793242     0.86900
C1310       C  0.18510258  0.69321463  0.82088318    -0.53300
C1311       C  0.19705432  0.69107632  0.82254872     0.09800
C1312       C  0.20362034  0.68723232  0.81101863     0.20800
C1313       C  0.18934477  0.69996428  0.80068305    -0.54100
C1314       C  0.20122522  0.69749988  0.80219306     0.09900
C1315       C  0.18444388  0.67902749  0.80438444    -0.53600
C1316       C  0.19640288  0.67653832  0.80594325     0.10500
H1317       H  0.17924942  0.69635195  0.82796354     0.15000
H1318       H  0.21328610  0.68544365  0.81232891     0.00700
H1319       H  0.18614155  0.70692963  0.79469681     0.15300
H1320       H  0.17815700  0.67263469  0.80064996     0.15100
C1321       C  0.81978885  0.66576629  0.18218321     0.86900
C1322       C  0.83273385  0.66983481  0.18485737    -0.53300
C1323       C  0.83426597  0.68199073  0.18380707     0.09800
C1324       C  0.82279563  0.68875546  0.18003935     0.20800
C1325       C  0.81190817  0.67322866  0.19056194    -0.54100
C1326       C  0.81340838  0.68523835  0.18938753     0.09900
C1327       C  0.81708287  0.67058912  0.16962263    -0.53600
C1328       C  0.81863538  0.68266464  0.16850095     0.10500
H1329       H  0.83981912  0.66377021  0.18763933     0.15000
H1330       H  0.82399121  0.69859131  0.17921362     0.00700
H1331       H  0.80552754  0.66931960  0.19677522     0.15300
H1332       H  0.81399479  0.66494067  0.16239638     0.15100
C1333       C  0.81033502  0.82919782  0.30365953     0.86900
C1334       C  0.82331264  0.82463370  0.30217401    -0.53300
C1335       C  0.82482362  0.81281394  0.30508620     0.09800
C1336       C  0.81317145  0.80674408  0.30944626     0.20800
C1337       C  0.80264976  0.82050144  0.29633894    -0.54100
C1338       C  0.80414399  0.80874614  0.29927139     0.09900
C1339       C  0.80712663  0.82640941  0.31672935    -0.53600
C1340       C  0.80855304  0.81461118  0.31977985     0.10500
H1341       H  0.83051760  0.83013473  0.29863611     0.15000
H1342       H  0.81422063  0.79721064  0.31198071     0.00700
H1343       H  0.79667504  0.82342852  0.28925169     0.15300
H1344       H  0.80392150  0.83307693  0.32295876     0.15100
C1345       C  0.31767513  0.80114764  0.82871627     0.86900
C1346       C  0.31495856  0.81454526  0.82697306    -0.53300
C1347       C  0.31591663  0.81827842  0.81536080     0.09800
C1348       C  0.31943182  0.80822957  0.80664335     0.20800
C1349       C  0.30904999  0.79481036  0.82019014    -0.54100
C1350       C  0.30994014  0.79846909  0.80866063     0.09900
C1351       C  0.33025553  0.79931246  0.82329165    -0.53600
C1352       C  0.33116439  0.80291519  0.81166518     0.10500
H1353       H  0.31234046  0.82045337  0.83418710     0.15000
H1354       H  0.31996445  0.81126316  0.79724435     0.00700
H1355       H  0.30291122  0.78781804  0.82304845     0.15300
H1356       H  0.33762792  0.79514849  0.82809823     0.15100
C1357       C  0.81519985  0.32591753  0.80990573     0.86900
C1358       C  0.82794171  0.32068153  0.81027171    -0.53300
C1359       C  0.82829939  0.30854169  0.81206059     0.09800
C1360       C  0.81576144  0.30283866  0.81354895     0.20800
C1361       C  0.80867940  0.31856881  0.80042337    -0.54100
C1362       C  0.80901152  0.30649170  0.80217371     0.09900
C1363       C  0.80945987  0.32209725  0.82179091    -0.53600
C1364       C  0.80966296  0.30997420  0.82370961     0.10500
H1365       H  0.83586197  0.32607812  0.80862582     0.15000
H1366       H  0.81605823  0.29300949  0.81497405     0.00700
H1367       H  0.80425409  0.32274226  0.79286515     0.15300
H1368       H  0.80546773  0.32832408  0.82805459     0.15100
C1369       C  0.67497322  0.31567661  0.68769528     0.86900
C1370       C  0.67900969  0.31227509  0.67499761    -0.53300
C1371       C  0.69123316  0.31286908  0.67342948     0.09800
C1372       C  0.69811084  0.31679200  0.68467451     0.20800
C1373       C  0.68215385  0.30733183  0.69593289    -0.54100
C1374       C  0.69426348  0.30785125  0.69434982     0.09900
C1375       C  0.68026058  0.32819916  0.68981456    -0.53600
C1376       C  0.69241689  0.32876365  0.68841488     0.10500
H1377       H  0.67283266  0.30948295  0.66807131     0.15000
H1378       H  0.70797106  0.31735640  0.68344478     0.00700
H1379       H  0.67795793  0.30150849  0.70248412     0.15300
H1380       H  0.67487125  0.33577672  0.69264217     0.15100
C1381       C  0.69268364  0.69610089  0.32289807     0.86900
C1382       C  0.69566673  0.68325926  0.31894175    -0.53300
C1383       C  0.69363145  0.68111836  0.30712968     0.09800
C1384       C  0.68844090  0.69203548  0.30044479     0.20800
C1385       C  0.69972263  0.70420645  0.31432877    -0.54100
C1386       C  0.69757754  0.70206401  0.30260232     0.09900
C1387       C  0.67943993  0.69801533  0.31941300    -0.53600
C1388       C  0.67721808  0.69603316  0.30754155     0.10500
H1389       H  0.69979389  0.67673520  0.32484677     0.15000
H1390       H  0.68665766  0.69032757  0.29087254     0.00700
H1391       H  0.70607071  0.71094155  0.31732340     0.15300
H1392       H  0.67266818  0.70126340  0.32554448     0.15100
C1393       C  0.18413996  0.16009649  0.68560850     0.86900
C1394       C  0.18886861  0.16375806  0.67314840    -0.53300
C1395       C  0.18736618  0.17570259  0.67064490     0.09800
C1396       C  0.18138150  0.18273598  0.68085022     0.20800
C1397       C  0.19057128  0.16848369  0.69432507    -0.54100
C1398       C  0.18916221  0.18027952  0.69180091     0.09900
C1399       C  0.17096495  0.16426807  0.68583215    -0.53600
C1400       C  0.16948828  0.17619297  0.68344464     0.10500
H1401       H  0.19306446  0.15761071  0.66694483     0.15000
H1402       H  0.18040653  0.19242783  0.67924500     0.00700
H1403       H  0.19579004  0.16534474  0.70189844     0.15300
H1404       H  0.16356688  0.15843906  0.68829082     0.15100
C1405       C  0.18395812  0.67107835  0.18449880     0.86900
C1406       C  0.18653147  0.67426232  0.17132385    -0.53300
C1407       C  0.18441070  0.68607690  0.16865846     0.09800
C1408       C  0.18000572  0.69345031  0.17937895     0.20800
C1409       C  0.19156275  0.67993288  0.19172086    -0.54100
C1410       C  0.18954453  0.69159023  0.18893439     0.09900
C1411       C  0.17091019  0.67507390  0.18667983    -0.53600
C1412       C  0.16887048  0.68689534  0.18421801     0.10500
H1413       H  0.18995210  0.66795152  0.16482097     0.15000
H1414       H  0.17856032  0.70304017  0.17754370     0.00700
H1415       H  0.19794230  0.67720921  0.19853903     0.15300
H1416       H  0.16418171  0.66930459  0.19069263     0.15100
C1417       C  0.19036782  0.32773616  0.80939492     0.86900
C1418       C  0.19296710  0.32366886  0.82224773    -0.53300
C1419       C  0.19143893  0.31158763  0.82399373     0.09800
C1420       C  0.18742797  0.30484972  0.81262721     0.20800
C1421       C  0.19859230  0.31987045  0.80165302    -0.54100
C1422       C  0.19700039  0.30790138  0.80332584     0.09900
C1423       C  0.17751947  0.32330975  0.80679995    -0.53600
C1424       C  0.17607816  0.31126846  0.80820406     0.10500
H1425       H  0.19603521  0.32968756  0.82918744     0.15000
H1426       H  0.18616824  0.29507150  0.81374308     0.00700
H1427       H  0.20483656  0.32349547  0.79514813     0.15300
H1428       H  0.17050978  0.32902752  0.80318807     0.15100
C1429       C  0.32438086  0.18501730  0.80384182     0.86900
C1430       C  0.31974607  0.17222164  0.80177571    -0.53300
C1431       C  0.30787909  0.17066036  0.80433871     0.09800
C1432       C  0.30181077  0.18210391  0.80923334     0.20800
C1433       C  0.31576654  0.19316634  0.79684683    -0.54100
C1434       C  0.30397484  0.19165517  0.79959700     0.09900
C1435       C  0.32155212  0.18771511  0.81701753    -0.53600
C1436       C  0.30963472  0.18630455  0.81991469     0.10500
H1437       H  0.32524773  0.16519783  0.79789783     0.15000
H1438       H  0.29220088  0.18088938  0.81134491     0.00700
H1439       H  0.31878182  0.19954965  0.79017019     0.15300
H1440       H  0.32821937  0.19090676  0.82330181     0.15100
C1441       C  0.68473480  0.19647114  0.17171171     0.86900
C1442       C  0.67209237  0.19609086  0.17714633    -0.53300
C1443       C  0.67195169  0.19355118  0.18909021     0.09800
C1444       C  0.68454457  0.19135702  0.19439341     0.20800
C1445       C  0.69166644  0.20536161  0.17942332    -0.54100
C1446       C  0.69151208  0.20285670  0.19131492     0.09900
C1447       C  0.69026405  0.18423283  0.17463225    -0.53600
C1448       C  0.69011696  0.18143913  0.18653191     0.10500
H1449       H  0.66409257  0.19816918  0.17203058     0.15000
H1450       H  0.68448194  0.18925146  0.20406563     0.00700
H1451       H  0.69618873  0.21310945  0.17568049     0.15300
H1452       H  0.69370933  0.17826184  0.16783347     0.15100
N1453       N  0.90223688  0.24047895  0.26332057    -0.26900
N1454       N  0.89416429  0.24167878  0.25477109    -0.34700
C1455       C  0.88398766  0.23611897  0.25794344     0.01500
C1456       C  0.88551327  0.23120241  0.26911357     0.07500
C1457       C  0.89722865  0.23412720  0.27233206    -0.05600
H1458       H  0.87586205  0.23607474  0.25265945     0.08200
H1459       H  0.90171675  0.23187704  0.28058475     0.09400
Cu1460     Cu  0.89634111  0.25226777  0.23986275     0.44200
Cu1461     Cu  0.91946164  0.24802936  0.26142572     0.42000
Cu1462     Cu  0.92073703  0.27240045  0.23856216     0.43900
N1463       N  0.89668135  0.26663989  0.22831861    -0.34300
N1464       N  0.90513797  0.27491648  0.22845553    -0.28500
C1465       C  0.90180505  0.28394257  0.22111622    -0.04600
C1466       C  0.89085840  0.28095370  0.21600733     0.07600
C1467       C  0.88793526  0.26994177  0.22077595     0.01400
H1468       H  0.90696480  0.29199482  0.21956147     0.09000
H1469       H  0.87973746  0.26496287  0.21933497     0.08100
N1470       N  0.93566820  0.26504581  0.24730304    -0.35700
N1471       N  0.93533864  0.25625895  0.25526733    -0.27900
C1472       C  0.94673238  0.25312664  0.25802978    -0.03100
C1473       C  0.95458523  0.26023437  0.25153590     0.05500
C1474       C  0.94721777  0.26769152  0.24488399     0.03600
H1475       H  0.94913307  0.24597641  0.26409913     0.08700
H1476       H  0.95003021  0.27430296  0.23840973     0.07500
N1477       N  0.08986736  0.26824805  0.22796921    -0.26900
N1478       N  0.09851791  0.26024669  0.22924007    -0.34700
C1479       C  0.10876302  0.26455751  0.22466455     0.01500
C1480       C  0.10650712  0.27577540  0.22003766     0.07500
C1481       C  0.09439836  0.27787129  0.22219360    -0.05600
H1482       H  0.11736910  0.26007332  0.22518722     0.08200
H1483       H  0.08950103  0.28606239  0.22045138     0.09400
Cu1484     Cu  0.09683894  0.24490416  0.23917871     0.44200
Cu1485     Cu  0.07311864  0.26555967  0.23609081     0.42000
Cu1486     Cu  0.07364037  0.24273014  0.26066247     0.43900
N1487       N  0.09824102  0.23431034  0.25403758    -0.34300
N1488       N  0.09037275  0.23419532  0.26283536    -0.28500
C1489       C  0.09537959  0.22837995  0.27221008    -0.04600
C1490       C  0.10684386  0.22461443  0.26892160     0.07600
C1491       C  0.10823249  0.22853019  0.25735173     0.01400
H1492       H  0.09114603  0.22722771  0.28080762     0.09000
H1493       H  0.11628911  0.22803652  0.25198982     0.08100
N1494       N  0.05810329  0.25126700  0.25403838    -0.35700
N1495       N  0.05796911  0.25943062  0.24542988    -0.27900
C1496       C  0.04648531  0.26258107  0.24320306    -0.03100
C1497       C  0.03898547  0.25607178  0.25061587     0.05500
C1498       C  0.04667586  0.24900502  0.25736663     0.03600
H1499       H  0.04376431  0.26894232  0.23643663     0.08700
H1500       H  0.04414761  0.24254331  0.26410169     0.07500
C1501       C  0.80497629  0.19451554  0.32440936     0.86900
C1502       C  0.81740254  0.19885671  0.32024510    -0.53300
C1503       C  0.81948880  0.19702552  0.30834634     0.09800
C1504       C  0.80892023  0.19085916  0.30184076     0.20800
C1505       C  0.79602635  0.20081286  0.31610576    -0.54100
C1506       C  0.79801116  0.19889061  0.30431175     0.09900
C1507       C  0.80442990  0.18125517  0.32081195    -0.53600
C1508       C  0.80624078  0.17932094  0.30891925     0.10500
H1509       H  0.82377029  0.20331266  0.32605392     0.15000
H1510       H  0.81050084  0.18917311  0.29225324     0.00700
H1511       H  0.78861533  0.20624447  0.31935374     0.15300
H1512       H  0.80191607  0.17422437  0.32700722     0.15100
C1513       C  0.82485118  0.31654126  0.18251643     0.86900
C1514       C  0.82064187  0.32934931  0.18539432    -0.53300
C1515       C  0.80842715  0.33085450  0.18474874     0.09800
C1516       C  0.80165895  0.31939084  0.18098314     0.20800
C1517       C  0.81764138  0.30850819  0.19092531    -0.54100
C1518       C  0.80553875  0.30995434  0.19022620     0.09900
C1519       C  0.81979232  0.31390326  0.17007888    -0.53600
C1520       C  0.80759158  0.31525711  0.16922026     0.10500
H1521       H  0.82671568  0.33640848  0.18809707     0.15000
H1522       H  0.79179246  0.32057498  0.18031754     0.00700
H1523       H  0.82185445  0.30220619  0.19702954     0.15300
H1524       H  0.82536336  0.31069292  0.16282714     0.15100
C1525       C  0.19252910  0.81677727  0.32363185     0.86900
C1526       C  0.17949781  0.81329232  0.32055152    -0.53300
C1527       C  0.17665137  0.81496151  0.30877257     0.09800
C1528       C  0.18714116  0.82004071  0.30131826     0.20800
C1529       C  0.20030962  0.80953059  0.31495265    -0.54100
C1530       C  0.19748956  0.81118448  0.30329598     0.09900
C1531       C  0.19380091  0.82983990  0.31948644    -0.53600
C1532       C  0.19115766  0.83157418  0.30772946     0.10500
H1533       H  0.17326229  0.80952458  0.32697219     0.15000
H1534       H  0.18506091  0.82138982  0.29181492     0.00700
H1535       H  0.20741008  0.80349725  0.31783468     0.15300
H1536       H  0.19713427  0.83693148  0.32519878     0.15100
C1537       C  0.32595096  0.81958978  0.19079839     0.86900
C1538       C  0.32147205  0.83258708  0.19170369    -0.53300
C1539       C  0.30956588  0.83401194  0.18903187     0.09800
C1540       C  0.30337810  0.82225279  0.18530157     0.20800
C1541       C  0.31730925  0.81233843  0.19865152    -0.54100
C1542       C  0.30552164  0.81363480  0.19575755     0.09900
C1543       C  0.32295555  0.81566069  0.17797337    -0.53600
C1544       C  0.31102072  0.81696894  0.17511120     0.10500
H1545       H  0.32711063  0.83981482  0.19489328     0.15000
H1546       H  0.29376248  0.82344380  0.18301710     0.00700
H1547       H  0.32033765  0.80642613  0.20574637     0.15300
H1548       H  0.32951392  0.81170242  0.17201348     0.15100
C1549       C  0.30616545  0.68052986  0.30092112     0.86900
C1550       C  0.30380755  0.68505329  0.31357995    -0.53300
C1551       C  0.30559945  0.69704952  0.31504563     0.09800
C1552       C  0.30980313  0.70346948  0.30355331     0.20800
C1553       C  0.29839694  0.68846421  0.29287806    -0.54100
C1554       C  0.30024153  0.70043675  0.29416919     0.09900
C1555       C  0.31917027  0.68437908  0.29813905    -0.53600
C1556       C  0.32107452  0.69647652  0.29943456     0.10500
H1557       H  0.30063763  0.67926458  0.32070234     0.15000
H1558       H  0.31133474  0.71322454  0.30454442     0.00700
H1559       H  0.29200299  0.68483372  0.28652876     0.15300
H1560       H  0.32605146  0.67825217  0.29505075     0.15100
C1561       C  0.68741704  0.33058853  0.31078363     0.86900
C1562       C  0.69070887  0.32718829  0.32369416    -0.53300
C1563       C  0.69031884  0.31505398  0.32579580     0.09800
C1564       C  0.68664280  0.30761611  0.31481474     0.20800
C1565       C  0.69605106  0.32322881  0.30309879    -0.54100
C1566       C  0.69573290  0.31123448  0.30522061     0.09900
C1567       C  0.67497201  0.32499820  0.30871703    -0.53600
C1568       C  0.67455415  0.31292567  0.31073653     0.10500
H1569       H  0.69335625  0.33369388  0.33035297     0.15000
H1570       H  0.68639199  0.29780487  0.31642712     0.00700
H1571       H  0.70201246  0.32726624  0.29657014     0.15300
H1572       H  0.66731146  0.33015096  0.30562539     0.15100
C1573       C  0.32507272  0.30005885  0.69486336     0.86900
C1574       C  0.32216012  0.31295966  0.69872834    -0.53300
C1575       C  0.31027466  0.31592433  0.69733500     0.09800
C1576       C  0.30253084  0.30574298  0.69213131     0.20800
C1577       C  0.31634938  0.29222253  0.70207170    -0.54100
C1578       C  0.30456495  0.29514177  0.70062165     0.09900
C1579       C  0.32064123  0.29926632  0.68191309    -0.53600
C1580       C  0.30879489  0.30210866  0.68043735     0.10500
H1581       H  0.32876655  0.31899988  0.70248766     0.15000
H1582       H  0.29293687  0.30818705  0.69111669     0.00700
H1583       H  0.31927962  0.28493250  0.70780722     0.15300
H1584       H  0.32630280  0.29624634  0.67463313     0.15100
C1585       C  0.18997886  0.20057540  0.32710707     0.86900
C1586       C  0.19432875  0.18848856  0.32214612    -0.53300
C1587       C  0.19267614  0.18728951  0.31009389     0.09800
C1588       C  0.18669614  0.19834917  0.30421070     0.20800
C1589       C  0.19646486  0.21000568  0.31957584    -0.54100
C1590       C  0.19468602  0.20897443  0.30762615     0.09900
C1591       C  0.17674754  0.20151059  0.32329524    -0.53600
C1592       C  0.17499161  0.20051761  0.31126567     0.10500
H1593       H  0.19852414  0.18162388  0.32760585     0.15000
H1594       H  0.18525972  0.19759666  0.29446705     0.00700
H1595       H  0.20191240  0.21703502  0.32348408     0.15300
H1596       H  0.16955350  0.20334447  0.32955016     0.15100
C1597       C  0.32210781  0.19949721  0.19350956     0.86900
C1598       C  0.31844062  0.20347885  0.18085626    -0.53300
C1599       C  0.30629799  0.20292256  0.17883994     0.09800
C1600       C  0.29903256  0.19830991  0.18967871     0.20800
C1601       C  0.31453399  0.20724676  0.20184097    -0.54100
C1602       C  0.30248160  0.20661768  0.19999909     0.09900
C1603       C  0.31693881  0.18682727  0.19486007    -0.53600
C1604       C  0.30483129  0.18613186  0.19291972     0.10500
H1605       H  0.32474481  0.20661449  0.17418253     0.15000
H1606       H  0.28922079  0.19786211  0.18820863     0.00700
H1607       H  0.31850256  0.21275224  0.20876350     0.15300
H1608       H  0.32234643  0.17915939  0.19748041     0.15100
C1609       C  0.18562897  0.31533286  0.16886212     0.86900
C1610       C  0.18870535  0.32822024  0.17272248    -0.53300
C1611       C  0.18689437  0.33028056  0.18462865     0.09800
C1612       C  0.18204944  0.31931783  0.19145210     0.20800
C1613       C  0.19305061  0.30725869  0.17720647    -0.54100
C1614       C  0.19127097  0.30942160  0.18901001     0.09900
C1615       C  0.17256657  0.31346632  0.17281810    -0.53600
C1616       C  0.17070016  0.31534549  0.18470720     0.10500
H1617       H  0.19240399  0.33490887  0.16676615     0.15000
H1618       H  0.18044639  0.32094914  0.20107304     0.00700
H1619       H  0.19939056  0.30059231  0.17401154     0.15300
H1620       H  0.16566920  0.31004621  0.16690391     0.15100
C1621       C  0.33195582  0.31614052  0.31747906     0.86900
C1622       C  0.32772503  0.31409884  0.33034908    -0.53300
C1623       C  0.31576283  0.31616085  0.33206753     0.09800
C1624       C  0.30920832  0.32043380  0.32074201     0.20800
C1625       C  0.32357834  0.30852513  0.30973240    -0.54100
C1626       C  0.31172124  0.31076457  0.31142753     0.09900
C1627       C  0.32834592  0.32915093  0.31449833    -0.53600
C1628       C  0.31629615  0.33140888  0.31605198     0.10500
H1629       H  0.33361309  0.31067835  0.33726771     0.15000
H1630       H  0.29949394  0.32197690  0.32215152     0.00700
H1631       H  0.32679751  0.30213533  0.30317115     0.15300
H1632       H  0.33452878  0.33566436  0.31077359     0.15100
C1633       C  0.12781816  0.21468920  0.29032842     0.30200
C1634       C  0.13333724  0.21377883  0.30158090    -0.36200
C1635       C  0.14503175  0.20893906  0.30173354     0.16200
C1636       C  0.15087841  0.20528008  0.29153596     0.22000
C1637       C  0.14536670  0.20612280  0.28035284    -0.34300
C1638       C  0.13373756  0.21093296  0.28020399     0.16100
O1639       O  0.11723142  0.21957983  0.28791245    -0.26300
C1640       C  0.11644655  0.21892773  0.27607662     0.05900
C1641       C  0.12644766  0.21357796  0.27088885    -0.31200
O1642       O  0.16194769  0.20159831  0.29358959    -0.23000
C1643       C  0.16329195  0.20279952  0.30529889    -0.03000
C1644       C  0.15301198  0.20733750  0.31083268    -0.17400
H1645       H  0.12895738  0.21689444  0.30960348     0.20500
H1646       H  0.14995632  0.20349847  0.27226923     0.18900
H1647       H  0.12830913  0.21225756  0.26152174     0.18900
H1648       H  0.15171137  0.20957488  0.32011222     0.14700
C1649       C  0.12536473  0.29499665  0.20379608     0.30200
C1650       C  0.12941912  0.30130738  0.19372308    -0.36200
C1651       C  0.14137092  0.30533038  0.19409352     0.16200
C1652       C  0.14875297  0.30348208  0.20379896     0.22000
C1653       C  0.14472096  0.29716935  0.21384320    -0.34300
C1654       C  0.13287663  0.29294313  0.21336881     0.16100
O1655       O  0.11481837  0.28969783  0.20503554    -0.26300
C1656       C  0.11567463  0.28409793  0.21548271     0.05900
C1657       C  0.12671789  0.28575916  0.22101235    -0.31200
O1658       O  0.15979489  0.30733240  0.20197660    -0.23000
C1659       C  0.15957438  0.31161147  0.19090739    -0.03000
C1660       C  0.14831808  0.31061990  0.18557339    -0.17400
H1661       H  0.12380723  0.30257456  0.18595230     0.20500
H1662       H  0.15057565  0.29525264  0.22130420     0.18900
H1663       H  0.12986742  0.28189112  0.22929365     0.18900
H1664       H  0.14576533  0.31296175  0.17656429     0.14700
C1665       C  0.85263762  0.30209775  0.18624997     0.30200
C1666       C  0.85960775  0.29165646  0.18693887    -0.36200
C1667       C  0.86916335  0.29185445  0.19505108     0.16200
C1668       C  0.87189342  0.30173277  0.20189494     0.22000
C1669       C  0.86495697  0.31225221  0.20111873    -0.34300
C1670       C  0.85524092  0.31198804  0.19310722     0.16100
O1671       O  0.84226333  0.30306897  0.18070040    -0.26300
C1672       C  0.83806592  0.31376164  0.18389497     0.05900
C1673       C  0.84583652  0.31972116  0.19163736    -0.31200
O1674       O  0.88047891  0.29949162  0.20974597    -0.23000
C1675       C  0.88318324  0.28801449  0.20792112    -0.03000
C1676       C  0.87640418  0.28283748  0.19891306    -0.17400
H1677       H  0.85722337  0.28363332  0.18209882     0.20500
H1678       H  0.86654483  0.31982033  0.20690883     0.18900
H1679       H  0.84419181  0.32785656  0.19658982     0.18900
H1680       H  0.87632147  0.27356165  0.19613457     0.14700
C1681       C  0.84752657  0.20878390  0.29918868     0.30200
C1682       C  0.85915158  0.21360585  0.30050619    -0.36200
C1683       C  0.86490013  0.21736943  0.28995883     0.16200
C1684       C  0.85947716  0.21653197  0.27894558     0.22000
C1685       C  0.84796702  0.21163351  0.27762562    -0.34300
C1686       C  0.84230900  0.20779133  0.28810283     0.16100
O1687       O  0.84032578  0.20503819  0.30781087    -0.26300
C1688       C  0.83041957  0.20148665  0.30212867     0.05900
C1689       C  0.83121352  0.20301372  0.28984187    -0.31200
O1690       O  0.86610664  0.22105703  0.27033328    -0.23000
C1691       C  0.87603232  0.22478122  0.27577711    -0.03000
C1692       C  0.87583464  0.22267189  0.28802658    -0.17400
H1693       H  0.86334799  0.21450572  0.30914973     0.20500
H1694       H  0.84364358  0.21101466  0.26901574     0.18900
H1695       H  0.82448263  0.20126278  0.28312759     0.18900
H1696       H  0.88254286  0.22507475  0.29456706     0.14700
C1697       C  0.00798228  0.26176000  0.24716548     0.30200
C1698       C  0.99773849  0.26777106  0.24288873    -0.36200
C1699       C  0.98658902  0.26346131  0.24690939     0.16200
C1700       C  0.98554495  0.25386200  0.25458826     0.22000
C1701       C  0.99580047  0.24781869  0.25883906    -0.34300
C1702       C  0.00696836  0.25217212  0.25486461     0.16100
O1703       O  0.01928216  0.26437524  0.24464261    -0.26300
C1704       C  0.02565511  0.25639896  0.25084661     0.05900
C1705       C  0.01843772  0.24857398  0.25736963    -0.31200
O1706       O  0.97422581  0.25142631  0.25727249    -0.23000
C1707       C  0.96790902  0.25958025  0.25122857    -0.03000
C1708       C  0.97517099  0.26728327  0.24461979    -0.17400
H1709       H  0.99841598  0.27534058  0.23689229     0.20500
H1710       H  0.99512589  0.24029979  0.26489758     0.18900
H1711       H  0.02122892  0.24128883  0.26311065     0.18900
H1712       H  0.97244625  0.27467147  0.23897875     0.14700
C1713       C  0.79868058  0.15627929  0.28905106     0.30200
C1714       C  0.79574477  0.15155812  0.27787974    -0.36200
C1715       C  0.79053508  0.14014967  0.27790503     0.16200
C1716       C  0.78839994  0.13370082  0.28818427     0.22000
C1717       C  0.79140628  0.13842366  0.29940567    -0.34300
C1718       C  0.79657534  0.14992145  0.29938732     0.16100
O1719       O  0.80283471  0.16712773  0.29107206    -0.26300
C1720       C  0.80345546  0.16783718  0.30288086     0.05900
C1721       C  0.79970101  0.15733056  0.30852824    -0.31200
O1722       O  0.78285124  0.12344123  0.28606988    -0.23000
C1723       C  0.78140068  0.12340825  0.27428314    -0.03000
C1724       C  0.78604778  0.13357271  0.26879221    -0.17400
H1725       H  0.79706888  0.15660284  0.26974372     0.20500
H1726       H  0.78951405  0.13364025  0.30758430     0.18900
H1727       H  0.79882342  0.15556456  0.31796386     0.18900
H1728       H  0.78583290  0.13595807  0.25944684     0.14700
C1729       C  0.69709511  0.15553356  0.20321516     0.30200
C1730       C  0.69742629  0.14810238  0.21333144    -0.36200
C1731       C  0.70333250  0.13705662  0.21197345     0.16200
C1732       C  0.70867915  0.13362580  0.20142654     0.22000
C1733       C  0.70821975  0.14098805  0.19128333    -0.34300
C1734       C  0.70224600  0.15197861  0.19262630     0.16100
O1735       O  0.69230454  0.16634942  0.20254620    -0.26300
C1736       C  0.69434788  0.16976540  0.19134878     0.05900
C1737       C  0.70053265  0.16113997  0.18478946    -0.31200
O1738       O  0.71487193  0.12359397  0.20250657    -0.23000
C1739       C  0.71323844  0.12036982  0.21380985    -0.03000
C1740       C  0.70614949  0.12842272  0.22012644    -0.17400
H1741       H  0.69360930  0.15086531  0.22175495     0.20500
H1742       H  0.71254823  0.13848784  0.18302151     0.18900
H1743       H  0.70345362  0.16153321  0.17560906     0.18900
H1744       H  0.70432091  0.12848591  0.22959442     0.14700
C1745       C  0.79391802  0.87732453  0.28688712     0.30200
C1746       C  0.79413233  0.87056101  0.29747744    -0.36200
C1747       C  0.80080451  0.85984986  0.29716912     0.16200
C1748       C  0.80688720  0.85609106  0.28715341     0.22000
C1749       C  0.80680386  0.86290616  0.27663477    -0.34300
C1750       C  0.80005434  0.87352328  0.27690531     0.16100
O1751       O  0.78738175  0.88702197  0.28481946    -0.26300
C1752       C  0.78931639  0.88939340  0.27333994     0.05900
C1753       C  0.79714841  0.88129710  0.26800702    -0.31200
O1754       O  0.81149927  0.84527045  0.28839707    -0.23000
C1755       C  0.80844849  0.84197342  0.29940326    -0.03000
C1756       C  0.80180810  0.85078531  0.30529666    -0.17400
H1757       H  0.78899300  0.87317186  0.30523214     0.20500
H1758       H  0.81118484  0.85982651  0.26859723     0.18900
H1759       H  0.79983248  0.88086279  0.25875163     0.18900
H1760       H  0.79750343  0.85030693  0.31391371     0.14700
C1761       C  0.72261178  0.87077468  0.20230881     0.30200
C1762       C  0.72459022  0.85971176  0.19675974    -0.36200
C1763       C  0.71442033  0.85258475  0.19492182     0.16200
C1764       C  0.70303751  0.85605993  0.19829089     0.22000
C1765       C  0.70101811  0.86725495  0.20371018    -0.34300
C1766       C  0.71123467  0.87443262  0.20555631     0.16100
O1767       O  0.73099441  0.87837199  0.20562743    -0.26300
C1768       C  0.72498878  0.88713948  0.21099882     0.05900
C1769       C  0.71261921  0.88522427  0.21116528    -0.31200
O1770       O  0.69497509  0.84758799  0.19639510    -0.23000
C1771       C  0.70129291  0.83857665  0.19172565    -0.03000
C1772       C  0.71344389  0.84127768  0.19056071    -0.17400
H1773       H  0.73351697  0.85669341  0.19439575     0.20500
H1774       H  0.69217114  0.87001180  0.20661352     0.18900
H1775       H  0.70575954  0.89063970  0.21536258     0.18900
H1776       H  0.72068108  0.83566372  0.18739466     0.14700
C1777       C  0.74505629  0.99344564  0.25964133     0.30200
C1778       C  0.75051157  0.00391516  0.26399316    -0.36200
C1779       C  0.74589264  0.01482784  0.25969211     0.16200
C1780       C  0.73651275  0.01542204  0.25168900     0.22000
C1781       C  0.73101263  0.00495362  0.24738700    -0.34300
C1782       C  0.73565925  0.99403822  0.25165718     0.16100
O1783       O  0.74828208  0.98230192  0.26207949    -0.26300
C1784       C  0.74086772  0.97562410  0.25556318     0.05900
C1785       C  0.73278221  0.98247626  0.24894532    -0.31200
O1786       O  0.73376398  0.02655981  0.24870331    -0.23000
C1787       C  0.74147465  0.03322838  0.25488347    -0.03000
C1788       C  0.74923790  0.02637781  0.26186952    -0.17400
H1789       H  0.75797112  0.00357334  0.27016178     0.20500
H1790       H  0.72372978  0.00528999  0.24101367     0.18900
H1791       H  0.72600138  0.97940438  0.24276852     0.18900
H1792       H  0.75636296  0.02944802  0.26765357     0.14700
C1793       C  0.13417839  0.71479640  0.79678779     0.30200
C1794       C  0.14438783  0.71665059  0.80379492    -0.36200
C1795       C  0.15243110  0.70705668  0.80455143     0.16200
C1796       C  0.15060647  0.69626733  0.79887390     0.22000
C1797       C  0.14016495  0.69429321  0.79205855    -0.34300
C1798       C  0.13206771  0.70397498  0.79125426     0.16100
O1799       O  0.12636553  0.72309764  0.79375039    -0.26300
C1800       C  0.11896152  0.71758040  0.78629437     0.05900
C1801       C  0.12197434  0.70560280  0.78445922    -0.31200
O1802       O  0.16004274  0.68907645  0.79973745    -0.23000
C1803       C  0.16794283  0.69540279  0.80606148    -0.03000
C1804       C  0.16359526  0.70659719  0.80933306    -0.17400
H1805       H  0.14628487  0.72524640  0.80780709     0.20500
H1806       H  0.13877774  0.68605345  0.78719914     0.18900
H1807       H  0.11794273  0.69935847  0.77828793     0.18900
H1808       H  0.16836141  0.71369847  0.81385840     0.14700
C1809       C  0.15831116  0.79193651  0.70673314     0.30200
C1810       C  0.15309345  0.79022552  0.71795947    -0.36200
C1811       C  0.14159797  0.78515701  0.71803542     0.16200
C1812       C  0.13553212  0.78203139  0.70779114     0.22000
C1813       C  0.14076952  0.78376736  0.69651088    -0.34300
C1814       C  0.15235516  0.78879057  0.69643486     0.16100
O1815       O  0.16915862  0.79615897  0.70468428    -0.26300
C1816       C  0.17028258  0.79573189  0.69289831     0.05900
C1817       C  0.16005928  0.79122546  0.68728298    -0.31200
O1818       O  0.12494993  0.77714600  0.71005997    -0.23000
C1819       C  0.12431472  0.77713023  0.72191636    -0.03000
C1820       C  0.13442837  0.78201513  0.72729851    -0.17400
H1821       H  0.15776700  0.79249982  0.72609581     0.20500
H1822       H  0.13622575  0.78120583  0.68838945     0.18900
H1823       H  0.15856274  0.78973402  0.67788413     0.18900
H1824       H  0.13631785  0.78297376  0.73670212     0.14700
C1825       C  0.87024508  0.78384859  0.71542606     0.30200
C1826       C  0.86575386  0.78788545  0.70443059    -0.36200
C1827       C  0.85370859  0.79168889  0.70434264     0.16200
C1828       C  0.84653982  0.79159742  0.71436101     0.22000
C1829       C  0.85103909  0.78759838  0.72536481    -0.34300
C1830       C  0.86306888  0.78375588  0.72544434     0.16100
O1831       O  0.88115077  0.77958690  0.71750365    -0.26300
C1832       C  0.88095865  0.77673139  0.72903018     0.05900
C1833       C  0.86992220  0.77915109  0.73438516    -0.31200
O1834       O  0.83541384  0.79512949  0.71212485    -0.23000
C1835       C  0.83541575  0.79747944  0.70048349    -0.03000
C1836       C  0.84661434  0.79553980  0.69523365    -0.17400
H1837       H  0.87120470  0.78787621  0.69645023     0.20500
H1838       H  0.84549278  0.78731114  0.73327587     0.18900
H1839       H  0.86725052  0.77760498  0.74352454     0.18900
H1840       H  0.84915361  0.79654988  0.68598653     0.14700
C1841       C  0.85694273  0.70116409  0.81093486     0.30200
C1842       C  0.86434586  0.71127102  0.81117206    -0.36200
C1843       C  0.87446665  0.71090208  0.80380207     0.16200
C1844       C  0.87728889  0.70119912  0.79673656     0.22000
C1845       C  0.86991581  0.69096824  0.79661484    -0.34300
C1846       C  0.85966439  0.69138427  0.80394727     0.16100
O1847       O  0.84630025  0.70035909  0.81595169    -0.26300
C1848       C  0.84205204  0.68987208  0.81229080     0.05900
C1849       C  0.85004172  0.68385240  0.80479510    -0.31200
O1850       O  0.88655721  0.70335360  0.78966300    -0.23000
C1851       C  0.88960412  0.71458729  0.79226021    -0.03000
C1852       C  0.88239475  0.71966763  0.80099356    -0.17400
H1853       H  0.86198179  0.71918109  0.81621453     0.20500
H1854       H  0.87167534  0.68350575  0.79073165     0.18900
H1855       H  0.84857781  0.67571520  0.79980201     0.18900
H1856       H  0.88251248  0.72878319  0.80425155     0.14700
C1857       C  0.01440140  0.73851397  0.74924666     0.30200
C1858       C  0.00427311  0.73329363  0.75457292    -0.36200
C1859       C  0.99307096  0.73745192  0.75059497     0.16200
C1860       C  0.99185185  0.74621458  0.74200192     0.22000
C1861       C  0.00202050  0.75150053  0.73669449    -0.34300
C1862       C  0.01326949  0.74728150  0.74064053     0.16100
O1863       O  0.02570102  0.73575956  0.75151266    -0.26300
C1864       C  0.03198477  0.74282316  0.74427005     0.05900
C1865       C  0.02471212  0.75022233  0.73729695    -0.31200
O1866       O  0.98046027  0.74863842  0.73959203    -0.23000
C1867       C  0.97431837  0.74129502  0.74672759    -0.03000
C1868       C  0.98174234  0.73415144  0.75376339    -0.17400
H1869       H  0.00507356  0.72637359  0.76129084     0.20500
H1870       H  0.00121986  0.75834369  0.72990021     0.18900
H1871       H  0.02744534  0.75674052  0.73069026     0.18900
H1872       H  0.97918050  0.72747269  0.76027739     0.14700
C1873       C  0.79420024  0.12817872  0.70552985     0.30200
C1874       C  0.79780660  0.13313810  0.69453358    -0.36200
C1875       C  0.80260665  0.14481566  0.69492418     0.16200
C1876       C  0.80380463  0.15110867  0.70541180     0.22000
C1877       C  0.80019851  0.14619535  0.71633366    -0.34300
C1878       C  0.79538972  0.13461345  0.71593125     0.16100
O1879       O  0.78927254  0.11751232  0.70733252    -0.26300
C1880       C  0.78728236  0.11719073  0.71905511     0.05900
C1881       C  0.79093382  0.12761669  0.72478352    -0.31200
O1882       O  0.80823130  0.16193199  0.70379484    -0.23000
C1883       C  0.80991786  0.16273793  0.69208783    -0.03000
C1884       C  0.80656852  0.15230811  0.68609285    -0.17400
H1885       H  0.79682048  0.12829984  0.68625286     0.20500
H1886       H  0.80096419  0.15113023  0.72458417     0.18900
H1887       H  0.79031927  0.12981177  0.73414530     0.18900
H1888       H  0.80679460  0.15055608  0.67662333     0.14700
C1889       C  0.71262352  0.14339859  0.80191397     0.30200
C1890       C  0.72310912  0.13647558  0.80160877    -0.36200
C1891       C  0.72257342  0.12596973  0.79486089     0.16200
C1892       C  0.71237719  0.12233864  0.78890275     0.22000
C1893       C  0.70179080  0.12926260  0.78930495    -0.34300
C1894       C  0.70237507  0.13992819  0.79596343     0.16100
O1895       O  0.71167951  0.15413826  0.80660559    -0.26300
C1896       C  0.70070103  0.15778835  0.80362558     0.05900
C1897       C  0.69441858  0.14921762  0.79706878    -0.31200
O1898       O  0.71431920  0.11274587  0.78223862    -0.23000
C1899       C  0.72592083  0.11031016  0.78395744    -0.03000
C1900       C  0.73143974  0.11824197  0.79174374    -0.17400
H1901       H  0.73133379  0.13942170  0.80581300     0.20500
H1902       H  0.69387455  0.12683857  0.78427536     0.18900
H1903       H  0.68567349  0.14998201  0.79295556     0.18900
H1904       H  0.74083343  0.11867796  0.79418271     0.14700
C1905       C  0.71757457  0.86911662  0.79808043     0.30200
C1906       C  0.71933769  0.85907886  0.80535275    -0.36200
C1907       C  0.70955120  0.85134562  0.80654671     0.16200
C1908       C  0.69868480  0.85323863  0.80095252     0.22000
C1909       C  0.69681512  0.86351395  0.79383006    -0.34300
C1910       C  0.70667984  0.87135454  0.79264917     0.16100
O1911       O  0.72601400  0.87662477  0.79473079    -0.26300
C1912       C  0.72055615  0.88398037  0.78714084     0.05900
C1913       C  0.70843471  0.88123881  0.78556571    -0.31200
O1914       O  0.69124944  0.84407062  0.80235774    -0.23000
C1915       C  0.69749570  0.83630357  0.80898702    -0.03000
C1916       C  0.70886700  0.84048460  0.81191409    -0.17400
H1917       H  0.72797653  0.85710211  0.80932025     0.20500
H1918       H  0.68848392  0.86498446  0.78908402     0.18900
H1919       H  0.70217489  0.88524449  0.77934854     0.18900
H1920       H  0.71591758  0.83577209  0.81663618     0.14700
C1921       C  0.80144947  0.84025119  0.71226999     0.30200
C1922       C  0.79847680  0.84538669  0.72328585    -0.36200
C1923       C  0.79452175  0.85733023  0.72297779     0.16200
C1924       C  0.79360690  0.86386587  0.71257459     0.22000
C1925       C  0.79666427  0.85873804  0.70154196    -0.34300
C1926       C  0.80054268  0.84673655  0.70184053     0.16100
O1927       O  0.80481543  0.82905276  0.71046419    -0.26300
C1928       C  0.80608559  0.82826877  0.69869625     0.05900
C1929       C  0.80355217  0.83905213  0.69288506    -0.31200
O1930       O  0.78908905  0.87469928  0.71433685    -0.23000
C1931       C  0.78705261  0.87507634  0.72603279    -0.03000
C1932       C  0.79033180  0.86451819  0.73182526    -0.17400
H1933       H  0.79891529  0.84031988  0.73150320     0.20500
H1934       H  0.79577490  0.86365229  0.69327006     0.18900
H1935       H  0.80365620  0.84094593  0.68343374     0.18900
H1936       H  0.78938728  0.86228852  0.74116229     0.14700
C1937       C  0.74339086  0.00712184  0.74055120     0.30200
C1938       C  0.73754950  0.99692514  0.74506096    -0.36200
C1939       C  0.74196676  0.98578688  0.74123085     0.16200
C1940       C  0.75151469  0.98467931  0.73349063     0.22000
C1941       C  0.75731983  0.99491806  0.72888254    -0.34300
C1942       C  0.75287689  0.00610764  0.73271690     0.16100
O1943       O  0.74090371  0.01836801  0.74326748    -0.26300
C1944       C  0.74885322  0.02476453  0.73707987     0.05900
C1945       C  0.75652714  0.01758348  0.73031236    -0.31200
O1946       O  0.75439928  0.97333065  0.73147418    -0.23000
C1947       C  0.74655340  0.96708886  0.73799573    -0.03000
C1948       C  0.73859648  0.97442898  0.74419634    -0.17400
H1949       H  0.73015934  0.99762547  0.75128199     0.20500
H1950       H  0.76488109  0.99421159  0.72286899     0.18900
H1951       H  0.76386134  0.02039007  0.72463895     0.18900
H1952       H  0.73151673  0.97179851  0.75025724     0.14700
C1953       C  0.81361207  0.70450718  0.14660564     0.30200
C1954       C  0.81275942  0.71622531  0.14229445    -0.36200
C1955       C  0.80769942  0.71753721  0.13097500     0.16200
C1956       C  0.80376567  0.70800652  0.12422311     0.22000
C1957       C  0.80475865  0.69618874  0.12850794    -0.34300
C1958       C  0.80978283  0.69487270  0.13994364     0.16100
O1959       O  0.81737923  0.70140804  0.15727504    -0.26300
C1960       C  0.81601027  0.68960050  0.15756657     0.05900
C1961       C  0.81133509  0.68500608  0.14698441    -0.31200
O1962       O  0.79844586  0.71151950  0.11426071    -0.23000
C1963       C  0.79900230  0.72343506  0.11475666    -0.03000
C1964       C  0.80474301  0.72760679  0.12491172    -0.17400
H1965       H  0.81545691  0.72384607  0.14759296     0.20500
H1966       H  0.80145650  0.68861708  0.12348753     0.18900
H1967       H  0.80904448  0.67584011  0.14489040     0.18900
H1968       H  0.80602404  0.73677652  0.12773227     0.14700
C1969       C  0.71832271  0.80459550  0.15161243     0.30200
C1970       C  0.72991857  0.80340029  0.14692453    -0.36200
C1971       C  0.73073683  0.79818883  0.13561745     0.16200
C1972       C  0.72083819  0.79448825  0.12922254     0.22000
C1973       C  0.70918306  0.79568568  0.13393754    -0.34300
C1974       C  0.70837044  0.80083117  0.14534749     0.16100
O1975       O  0.71561252  0.80876905  0.16224688    -0.26300
C1976       C  0.70373948  0.80770142  0.16291772     0.05900
C1977       C  0.69873528  0.80279616  0.15261858    -0.31200
O1978       O  0.72382414  0.78941820  0.11899035    -0.23000
C1979       C  0.73578868  0.78982737  0.11894173    -0.03000
C1980       C  0.74053065  0.79519027  0.12905885    -0.17400
H1981       H  0.73779579  0.80608921  0.15188327     0.20500
H1982       H  0.70133813  0.79258452  0.12917354     0.18900
H1983       H  0.68943157  0.80070327  0.15081693     0.18900
H1984       H  0.74987999  0.79640249  0.13139093     0.14700
C1985       C  0.80256384  0.69665633  0.85656367     0.30200
C1986       C  0.80353081  0.70117298  0.86823874    -0.36200
C1987       C  0.79267678  0.70457332  0.87373309     0.16200
C1988       C  0.78173540  0.70361815  0.86804041     0.22000
C1989       C  0.78078129  0.69907276  0.85649990    -0.34300
C1990       C  0.79153447  0.69564261  0.85109489     0.16100
O1991       O  0.81147478  0.69344519  0.84945239    -0.26300
C1992       C  0.80599345  0.69025575  0.83937021     0.05900
C1993       C  0.79357738  0.69146972  0.83996866    -0.31200
O1994       O  0.77279425  0.70781584  0.87441115    -0.23000
C1995       C  0.77793532  0.71149686  0.88441802    -0.03000
C1996       C  0.79032884  0.70967553  0.88457317    -0.17400
H1997       H  0.81212307  0.70218797  0.87261945     0.20500
H1998       H  0.77223652  0.69847706  0.85194652     0.18900
H1999       H  0.78691581  0.69005165  0.83311885     0.18900
H2000       H  0.79668205  0.71215709  0.89142580     0.14700
C2001       C  0.70546550  0.78852421  0.87451619     0.30200
C2002       C  0.70462183  0.79975169  0.86887435    -0.36200
C2003       C  0.69910408  0.79987206  0.85760333     0.16200
C2004       C  0.69462012  0.78967871  0.85231236     0.22000
C2005       C  0.69525862  0.77852521  0.85803150    -0.34300
C2006       C  0.70090061  0.77837586  0.86919226     0.16100
O2007       O  0.71144449  0.78607904  0.88441370    -0.26300
C2008       C  0.71073509  0.77420652  0.88536516     0.05900
C2009       C  0.70421589  0.76898700  0.87618031    -0.31200
O2010       O  0.69095507  0.79156723  0.84129608    -0.23000
C2011       C  0.69305419  0.80314531  0.83942673    -0.03000
C2012       C  0.69805730  0.80878574  0.84933980    -0.17400
H2013       H  0.70857545  0.80771056  0.87269918     0.20500
H2014       H  0.69218947  0.77040445  0.85376805     0.18900
H2015       H  0.70275997  0.75955944  0.87450607     0.18900
H2016       H  0.70121262  0.81790431  0.85013241     0.14700
C2017       C  0.76078521  0.74939093  0.98916534     0.30200
C2018       C  0.76549452  0.74371140  0.99931399    -0.36200
C2019       C  0.76183331  0.74836166  0.01033810     0.16200
C2020       C  0.75409253  0.75796618  0.01133969     0.22000
C2021       C  0.74935471  0.76363473  0.00117816    -0.34300
C2022       C  0.75299880  0.75896347  0.99013939     0.16100
O2023       O  0.76289695  0.74640792  0.97799084    -0.26300
C2024       C  0.75635532  0.75414147  0.97168702     0.05900
C2025       C  0.75001950  0.76218228  0.97878566    -0.31200
O2026       O  0.75200145  0.76091457  0.02254342    -0.23000
C2027       C  0.75848288  0.75308308  0.02880489    -0.03000
C2028       C  0.76475347  0.74504347  0.02165690    -0.17400
H2029       H  0.77157833  0.73617447  0.99866018     0.20500
H2030       H  0.74325058  0.77115462  0.00183180     0.18900
H2031       H  0.74399578  0.76926624  0.97599892     0.18900
H2032       H  0.77070532  0.73787784  0.02438720     0.14700
C2033       C  0.15640885  0.29125760  0.79418876     0.30200
C2034       C  0.15342013  0.28094188  0.78776732    -0.36200
C2035       C  0.14155921  0.28026470  0.78367105     0.16200
C2036       C  0.13309865  0.28903507  0.78584382     0.22000
C2037       C  0.13614978  0.29947142  0.79216145    -0.34300
C2038       C  0.14810788  0.30022840  0.79614902     0.16100
O2039       O  0.16708248  0.29381249  0.79854261    -0.26300
C2040       C  0.16571923  0.30462751  0.80329005     0.05900
C2041       C  0.15409358  0.30911018  0.80201963    -0.31200
O2042       O  0.12254025  0.28650206  0.78105244    -0.23000
C2043       C  0.12436825  0.27604273  0.77564726    -0.03000
C2044       C  0.13604092  0.27179453  0.77697203    -0.17400
H2045       H  0.15994926  0.27399291  0.78594350     0.20500
H2046       H  0.12971132  0.30656599  0.79371443     0.18900
H2047       H  0.15062905  0.31770991  0.80483183     0.18900
H2048       H  0.13992813  0.26366163  0.77341975     0.14700
C2049       C  0.14055663  0.18624819  0.69128828     0.30200
C2050       C  0.12944352  0.18570775  0.69724950    -0.36200
C2051       C  0.12367969  0.19674278  0.69927762     0.16200
C2052       C  0.12859972  0.20750253  0.69568661     0.22000
C2053       C  0.13944276  0.20799385  0.68941449    -0.34300
C2054       C  0.14516337  0.19702883  0.68742710     0.16100
O2055       O  0.14824006  0.17733249  0.68984612    -0.26300
C2056       C  0.15785375  0.18250281  0.68496315     0.05900
C2057       C  0.15631394  0.19473899  0.68313825    -0.31200
O2058       O  0.12287013  0.21679791  0.70007096    -0.23000
C2059       C  0.11398257  0.21204373  0.70638537    -0.03000
C2060       C  0.11391327  0.19957556  0.70612516    -0.17400
H2061       H  0.12593834  0.17737951  0.70074752     0.20500
H2062       H  0.14356495  0.21642897  0.68700041     0.18900
H2063       H  0.16268271  0.20127472  0.67990662     0.18900
H2064       H  0.10833968  0.19354789  0.71126805     0.14700
C2065       C  0.87394501  0.28339563  0.80077015     0.30200
C2066       C  0.86985046  0.29503453  0.80324995    -0.36200
C2067       C  0.85780479  0.29604686  0.80685843     0.16200
C2068       C  0.85031601  0.28628923  0.80802931     0.22000
C2069       C  0.85444669  0.27464992  0.80572255    -0.34300
C2070       C  0.86644286  0.27365084  0.80202672     0.16100
O2071       O  0.88456389  0.28044914  0.79636943    -0.26300
C2072       C  0.88382641  0.26865752  0.79477888     0.05900
C2073       C  0.87276733  0.26397354  0.79821006    -0.31200
O2074       O  0.83914922  0.28936734  0.81051741    -0.23000
C2075       C  0.83942593  0.30127635  0.81096393    -0.03000
C2076       C  0.85086519  0.30590028  0.80884135    -0.17400
H2077       H  0.87550623  0.30280414  0.80197823     0.20500
H2078       H  0.84857068  0.26695803  0.80627354     0.18900
H2079       H  0.86964458  0.25482918  0.79753990     0.18900
H2080       H  0.85360409  0.31516549  0.80819563     0.14700
C2081       C  0.87460319  0.20442805  0.71358825     0.30200
C2082       C  0.87058921  0.20219507  0.70192055    -0.36200
C2083       C  0.85869115  0.19809201  0.70082518     0.16200
C2084       C  0.85128072  0.19631407  0.71051631     0.22000
C2085       C  0.85527065  0.19855188  0.72211964    -0.34300
C2086       C  0.86710948  0.20261789  0.72320900     0.16100
O2087       O  0.88525121  0.20861459  0.71677748    -0.26300
C2088       C  0.88449122  0.20945936  0.72859884     0.05900
C2089       C  0.87340980  0.20580921  0.73302112    -0.31200
O2090       O  0.84043307  0.19271646  0.70749088    -0.23000
C2091       C  0.84080344  0.19215767  0.69567068    -0.03000
C2092       C  0.85198089  0.19540579  0.69103392    -0.17400
H2093       H  0.87627404  0.20368031  0.69424162     0.20500
H2094       H  0.84949258  0.19733106  0.72977717     0.18900
H2095       H  0.87030367  0.20573621  0.74215152     0.18900
H2096       H  0.85474764  0.19592304  0.68181179     0.14700
C2097       C  0.01404374  0.25078622  0.75585941     0.30200
C2098       C  0.00397914  0.25624579  0.76118994    -0.36200
C2099       C  0.99266564  0.25186316  0.75768665     0.16200
C2100       C  0.99137741  0.24277296  0.74948406     0.22000
C2101       C  0.00140275  0.23731638  0.74420339    -0.34300
C2102       C  0.01266561  0.24166346  0.74771443     0.16100
O2103       O  0.02547087  0.25344710  0.75774498    -0.26300
C2104       C  0.03146326  0.24590319  0.75070823     0.05900
C2105       C  0.02391708  0.23837226  0.74429040    -0.31200
O2106       O  0.98003755  0.24004400  0.74746216    -0.23000
C2107       C  0.97388805  0.24743469  0.75447663    -0.03000
C2108       C  0.98128645  0.25500747  0.76106580    -0.17400
H2109       H  0.00490045  0.26339780  0.76761119     0.20500
H2110       H  0.00048234  0.23016046  0.73778507     0.18900
H2111       H  0.02634882  0.23148601  0.73796538     0.18900
H2112       H  0.97866995  0.26180808  0.76741184     0.14700
C2113       C  0.29140636  0.80692284  0.15269374     0.30200
C2114       C  0.28011447  0.80462633  0.14768323    -0.36200
C2115       C  0.28005678  0.79777019  0.13724596     0.16200
C2116       C  0.29039391  0.79352529  0.13194790     0.22000
C2117       C  0.30174580  0.79578701  0.13702480    -0.34300
C2118       C  0.30180236  0.80261312  0.14757376     0.16100
O2119       O  0.29339816  0.81275346  0.16268581    -0.26300
C2120       C  0.30525134  0.81224982  0.16412552     0.05900
C2121       C  0.31097477  0.80602611  0.15494699    -0.31200
O2122       O  0.28812766  0.78716604  0.12225114    -0.23000
C2123       C  0.27617412  0.78729147  0.12144711    -0.03000
C2124       C  0.27073137  0.79372856  0.13056846    -0.17400
H2125       H  0.27190492  0.80780335  0.15176674     0.20500
H2126       H  0.30993195  0.79233660  0.13312363     0.18900
H2127       H  0.32042534  0.80398223  0.15400684     0.18900
H2128       H  0.26124075  0.79515663  0.13210098     0.14700
C2129       C  0.19974273  0.71665829  0.12854011     0.30200
C2130       C  0.19184830  0.71683797  0.13820315    -0.36200
C2131       C  0.19028351  0.70596344  0.14417268     0.16200
C2132       C  0.19611034  0.69555047  0.14099802     0.22000
C2133       C  0.20377821  0.69527265  0.13101960    -0.34300
C2134       C  0.20530446  0.70621601  0.12493568     0.16100
O2135       O  0.20335643  0.72610365  0.12252716    -0.26300
C2136       C  0.21117454  0.72171319  0.11475066     0.05900
C2137       C  0.21270532  0.70936075  0.11572836    -0.31200
O2138       O  0.19436597  0.68683685  0.14883224    -0.23000
C2139       C  0.18728161  0.69180161  0.15705238    -0.03000
C2140       C  0.18432682  0.70362582  0.15439818    -0.17400
H2141       H  0.18767077  0.72504249  0.14123522     0.20500
H2142       H  0.20864174  0.68726538  0.12852401     0.18900
H2143       H  0.21893583  0.70370896  0.11092025     0.18900
H2144       H  0.17911912  0.70997584  0.15949507     0.14700
C2145       C  0.30536912  0.77385734  0.87242004     0.30200
C2146       C  0.31212398  0.77255858  0.86196333    -0.36200
C2147       C  0.31370006  0.78294340  0.85511052     0.16200
C2148       C  0.30893324  0.79389812  0.85826247     0.22000
C2149       C  0.30233343  0.79524296  0.86887387    -0.34300
C2150       C  0.30079432  0.78483197  0.87578926     0.16100
O2151       O  0.30192067  0.76509984  0.87951727    -0.26300
C2152       C  0.29517638  0.77050014  0.88768475     0.05900
C2153       C  0.29420802  0.78280826  0.88587199    -0.31200
O2154       O  0.31037386  0.80207703  0.84983661    -0.23000
C2155       C  0.31620820  0.79628518  0.84121288    -0.03000
C2156       C  0.31856734  0.78437850  0.84410015    -0.17400
H2157       H  0.31545488  0.76392593  0.85908646     0.20500
H2158       H  0.29823286  0.80368474  0.87129720     0.18900
H2159       H  0.28882272  0.78917244  0.89079976     0.18900
H2160       H  0.32240897  0.77753225  0.83844446     0.14700
C2161       C  0.22568025  0.70626962  0.86465044     0.30200
C2162       C  0.22737845  0.70171918  0.85313106    -0.36200
C2163       C  0.21694882  0.69883714  0.84677899     0.16200
C2164       C  0.20558639  0.70041500  0.85138487     0.22000
C2165       C  0.20387225  0.70496122  0.86297175    -0.34300
C2166       C  0.21435430  0.70777150  0.86939819     0.16100
O2167       O  0.23423623  0.70966923  0.87198781    -0.26300
C2168       C  0.22842650  0.71335882  0.88167355     0.05900
C2169       C  0.21598693  0.71239075  0.88059439    -0.31200
O2170       O  0.19711412  0.69756983  0.84364834    -0.23000
C2171       C  0.20313254  0.69403712  0.83397823    -0.03000
C2172       C  0.21552822  0.69464108  0.83547822    -0.17400
H2173       H  0.23624431  0.70060029  0.84933989     0.20500
H2174       H  0.19499848  0.70631849  0.86666390     0.18900
H2175       H  0.20918014  0.71489115  0.88700676     0.18900
H2176       H  0.22253440  0.69274357  0.82908250     0.14700
C2177       C  0.25528424  0.75453474  0.99082075     0.30200
C2178       C  0.26175423  0.75844898  0.00085435    -0.36200
C2179       C  0.25708338  0.75514593  0.01202525     0.16200
C2180       C  0.24674587  0.74846179  0.01322089     0.22000
C2181       C  0.24023497  0.74462806  0.00320076    -0.34300
C2182       C  0.24493107  0.74788080  0.99203939     0.16100
O2183       O  0.25823469  0.75627449  0.97954689    -0.26300
C2184       C  0.24970238  0.75061009  0.97342740     0.05900
C2185       C  0.24116059  0.74525196  0.98076079    -0.31200
O2186       O  0.24411616  0.74615927  0.02446090    -0.23000
C2187       C  0.25283452  0.75147921  0.03060877    -0.03000
C2188       C  0.26116264  0.75723519  0.02332388    -0.17400
H2189       H  0.26994836  0.76357665  0.00000407     0.20500
H2190       H  0.23216034  0.73931513  0.00404905     0.18900
H2191       H  0.23341699  0.74002928  0.97816801     0.18900
H2192       H  0.26910902  0.76212445  0.02595892     0.14700
C2193       C  0.29826386  0.14209976  0.79457933     0.30200
C2194       C  0.29953037  0.13031597  0.79022994    -0.36200
C2195       C  0.28884956  0.12443612  0.78691832     0.16200
C2196       C  0.27775789  0.12989256  0.78770087     0.22000
C2197       C  0.27649745  0.14158415  0.79211169    -0.34300
C2198       C  0.28711070  0.14736871  0.79555679     0.16100
O2199       O  0.30701304  0.14942076  0.79780425    -0.26300
C2200       C  0.30137401  0.15947722  0.80103389     0.05900
C2201       C  0.28895672  0.15863881  0.79982981    -0.31200
O2202       O  0.26899891  0.12305367  0.78372958    -0.23000
C2203       C  0.27442611  0.11295450  0.78044475    -0.03000
C2204       C  0.28681921  0.11326781  0.78225808    -0.17400
H2205       H  0.30823452  0.12608301  0.78936980     0.20500
H2206       H  0.26782306  0.14592630  0.79270097     0.18900
H2207       H  0.28223893  0.16545215  0.80139881     0.18900
H2208       H  0.29337606  0.10643554  0.78013601     0.14700
C2209       C  0.20098183  0.11291683  0.70367390     0.30200
C2210       C  0.20056343  0.11909235  0.69272660    -0.36200
C2211       C  0.19348376  0.12954877  0.69245147     0.16200
C2212       C  0.18709868  0.13346747  0.70222697     0.22000
C2213       C  0.18734186  0.12722096  0.71305139    -0.34300
C2214       C  0.19458028  0.11697404  0.71339226     0.16100
O2215       O  0.20828693  0.10397293  0.70645257    -0.26300
C2216       C  0.20655911  0.10240132  0.71809892     0.05900
C2217       C  0.19810643  0.11021500  0.72283533    -0.31200
O2218       O  0.18237559  0.14414544  0.70061966    -0.23000
C2219       C  0.18576641  0.14729245  0.68968904    -0.03000
C2220       C  0.19260341  0.13844916  0.68408979    -0.17400
H2221       H  0.20603978  0.11641816  0.68522447     0.20500
H2222       H  0.18290101  0.13062292  0.72092805     0.18900
H2223       H  0.19560680  0.11134113  0.73208439     0.18900
H2224       H  0.19721250  0.13891308  0.67562563     0.14700
C2225       C  0.29416093  0.86368276  0.79884199     0.30200
C2226       C  0.29427324  0.85629806  0.80896060    -0.36200
C2227       C  0.30278488  0.84704336  0.80901307     0.16200
C2228       C  0.31060740  0.84508658  0.79968721     0.22000
C2229       C  0.31077338  0.85273642  0.78970792    -0.34300
C2230       C  0.30228594  0.86208059  0.78969276     0.16100
O2231       O  0.28599404  0.87187047  0.79635355    -0.26300
C2232       C  0.28906047  0.87582905  0.78560344     0.05900
C2233       C  0.29915142  0.87009476  0.78100309    -0.31200
O2234       O  0.31664300  0.83496033  0.80090004    -0.23000
C2235       C  0.31277560  0.83049357  0.81123040    -0.03000
C2236       C  0.30423941  0.83772252  0.81671519    -0.17400
H2237       H  0.28771498  0.85728122  0.81600626     0.20500
H2238       H  0.31663349  0.85111173  0.78219064     0.18900
H2239       H  0.30295905  0.87098779  0.77217620     0.18900
H2240       H  0.29910051  0.83586780  0.82468827     0.14700
C2241       C  0.20373476  0.83837157  0.70754850     0.30200
C2242       C  0.20629168  0.84298758  0.71886748    -0.36200
C2243       C  0.21151110  0.85440184  0.71914764     0.16200
C2244       C  0.21399863  0.86096101  0.70901931     0.22000
C2245       C  0.21138523  0.85633737  0.69764732    -0.34300
C2246       C  0.20621707  0.84483035  0.69735960     0.16100
O2247       O  0.19952358  0.82758342  0.70526707    -0.26300
C2248       C  0.19926492  0.82700924  0.69342978     0.05900
C2249       C  0.20331196  0.83754288  0.68803512    -0.31200
O2250       O  0.21943932  0.87122575  0.71143965    -0.23000
C2251       C  0.22047393  0.87115367  0.72327847    -0.03000
C2252       C  0.21565930  0.86090819  0.72848269    -0.17400
H2253       H  0.20464969  0.83787650  0.72690432     0.20500
H2254       H  0.21353477  0.86121422  0.68958727     0.18900
H2255       H  0.20440787  0.83943365  0.67864563     0.18900
H2256       H  0.21554403  0.85843249  0.73780666     0.14700
C2257       C  0.25080260  0.00172843  0.74260414     0.30200
C2258       C  0.24708978  0.99114386  0.73692953    -0.36200
C2259       C  0.25156777  0.98036551  0.74168353     0.16200
C2260       C  0.25920388  0.97999829  0.75134956     0.22000
C2261       C  0.26290947  0.99059137  0.75703620    -0.34300
C2262       C  0.25841992  0.00137774  0.75228604     0.16100
O2263       O  0.24770829  0.01277437  0.73962775    -0.26300
C2264       C  0.25342882  0.01964261  0.74748885     0.05900
C2265       C  0.26021954  0.01300954  0.75559030    -0.31200
O2266       O  0.26224053  0.96892935  0.75434113    -0.23000
C2267       C  0.25644187  0.96208245  0.74650891    -0.03000
C2268       C  0.24967189  0.96874908  0.73842221    -0.17400
H2269       H  0.24110165  0.99129858  0.72933980     0.20500
H2270       H  0.26886953  0.99043576  0.76464731     0.18900
H2271       H  0.26569190  0.01627548  0.76284946     0.18900
H2272       H  0.24411465  0.96551029  0.73121450     0.14700
C2273       C  0.14790207  0.80364367  0.30152981     0.30200
C2274       C  0.13683678  0.79783054  0.30346501    -0.36200
C2275       C  0.13024791  0.79480773  0.29318529     0.16200
C2276       C  0.13435602  0.79731317  0.28185322     0.22000
C2277       C  0.14523182  0.80326768  0.27994918    -0.34300
C2278       C  0.15174055  0.80628753  0.29015734     0.16100
O2279       O  0.15595817  0.80658206  0.30969130    -0.26300
C2280       C  0.16502335  0.81122062  0.30341151     0.05900
C2281       C  0.16277522  0.81127953  0.29120959    -0.31200
O2282       O  0.12740416  0.79290112  0.27348391    -0.23000
C2283       C  0.11857683  0.78757230  0.27942178    -0.03000
C2284       C  0.11979075  0.78852425  0.29174649    -0.17400
H2285       H  0.13377461  0.79548546  0.31231391     0.20500
H2286       H  0.14859737  0.80505336  0.27107715     0.18900
H2287       H  0.16853557  0.81406154  0.28397495     0.18900
H2288       H  0.11419580  0.78458713  0.29858967     0.14700
C2289       C  0.14152348  0.69656741  0.19670368     0.30200
C2290       C  0.13081094  0.69549703  0.20327339    -0.36200
C2291       C  0.12568499  0.70628963  0.20726371     0.16200
C2292       C  0.13082284  0.71729718  0.20496226     0.22000
C2293       C  0.14134043  0.71836428  0.19825860    -0.34300
C2294       C  0.14638674  0.70764556  0.19425123     0.16100
O2295       O  0.14847836  0.68771920  0.19301453    -0.26300
C2296       C  0.15784331  0.69325848  0.18805843     0.05900
C2297       C  0.15690407  0.70567581  0.18853012    -0.31200
O2298       O  0.12512559  0.72616008  0.21017504    -0.23000
C2299       C  0.11610132  0.72086538  0.21582559    -0.03000
C2300       C  0.11591950  0.70848728  0.21431089    -0.17400
H2301       H  0.12699140  0.68686803  0.20547926     0.20500
H2302       H  0.14553836  0.72695006  0.19663490     0.18900
H2303       H  0.16333158  0.71240967  0.18587038     0.18900
H2304       H  0.10981994  0.70205052  0.21822320     0.14700
C2305       C  0.86618240  0.78177658  0.29235430     0.30200
C2306       C  0.85435775  0.78085758  0.29650937    -0.36200
C2307       C  0.84863107  0.79164192  0.29936595     0.16200
C2308       C  0.85408947  0.80264718  0.29816498     0.22000
C2309       C  0.86609133  0.80355621  0.29426750    -0.34300
C2310       C  0.87190010  0.79269928  0.29147650     0.16100
O2311       O  0.87260205  0.77293951  0.28793084    -0.26300
C2312       C  0.88272498  0.77812307  0.28436656     0.05900
C2313       C  0.88287734  0.79042319  0.28643661    -0.31200
O2314       O  0.84659576  0.81160477  0.30029833    -0.23000
C2315       C  0.83625182  0.80622083  0.30302695    -0.03000
C2316       C  0.83708243  0.79379259  0.30263271    -0.17400
H2317       H  0.84974185  0.77234598  0.29695262     0.20500
H2318       H  0.87041766  0.81213683  0.29301389     0.18900
H2319       H  0.88958764  0.79684493  0.28365078     0.18900
H2320       H  0.83008599  0.78721621  0.30389214     0.14700
C2321       C  0.85619600  0.70315576  0.19134982     0.30200
C2322       C  0.86021507  0.71467371  0.19415988    -0.36200
C2323       C  0.87155826  0.71538066  0.19945406     0.16200
C2324       C  0.87862766  0.70546388  0.20170163     0.22000
C2325       C  0.87462540  0.69388824  0.19876358    -0.34300
C2326       C  0.86313315  0.69315921  0.19360394     0.16100
O2327       O  0.84545178  0.70046755  0.18731521    -0.26300
C2328       C  0.84536023  0.68857101  0.18695937     0.05900
C2329       C  0.85617269  0.68350391  0.19075018    -0.31200
O2330       O  0.88838220  0.70816509  0.20785466    -0.23000
C2331       C  0.88743967  0.71992949  0.20957198    -0.03000
C2332       C  0.87718117  0.72485680  0.20451586    -0.17400
H2333       H  0.85461056  0.72249793  0.19287112     0.20500
H2334       H  0.87982554  0.68597942  0.20091181     0.18900
H2335       H  0.85842143  0.67412713  0.19173875     0.18900
H2336       H  0.87390938  0.73395943  0.20525283     0.14700
C2337       C  0.01286186  0.74285190  0.25128352     0.30200
C2338       C  0.00276915  0.73819603  0.24542139    -0.36200
C2339       C  0.99160505  0.74271363  0.24909083     0.16200
C2340       C  0.99044381  0.75122508  0.25791236     0.22000
C2341       C  0.00054299  0.75593157  0.26371762    -0.34300
C2342       C  0.01170448  0.75141279  0.26005688     0.16100
O2343       O  0.02414601  0.73981143  0.24937682    -0.26300
C2344       C  0.03030104  0.74651769  0.25702253     0.05900
C2345       C  0.02302674  0.75393266  0.26387894    -0.31200
O2346       O  0.97914295  0.75409068  0.26000808    -0.23000
C2347       C  0.97297307  0.74735031  0.25241186    -0.03000
C2348       C  0.98026784  0.74009766  0.24538466    -0.17400
H2349       H  0.00356151  0.73148005  0.23852970     0.20500
H2350       H  0.99974870  0.76260526  0.27064813     0.18900
H2351       H  0.02568062  0.76021838  0.27070694     0.18900
H2352       H  0.97761436  0.73379094  0.23857503     0.14700
C2353       C  0.78577604  0.30661035  0.14815094     0.30200
C2354       C  0.77420298  0.30357570  0.14425676    -0.36200
C2355       C  0.77340230  0.29842630  0.13289209     0.16200
C2356       C  0.78326977  0.29648025  0.12571877     0.22000
C2357       C  0.79487652  0.29958643  0.12959929    -0.34300
C2358       C  0.79569073  0.30464828  0.14105278     0.16100
O2359       O  0.78861038  0.31089613  0.15873875    -0.26300
C2360       C  0.80053616  0.31171291  0.15851956     0.05900
C2361       C  0.80541239  0.30796214  0.14767627    -0.31200
O2362       O  0.78042510  0.29108843  0.11560342    -0.23000
C2363       C  0.76857947  0.28951199  0.11637673    -0.03000
C2364       C  0.76377793  0.29393931  0.12693979    -0.17400
H2365       H  0.76638497  0.30483297  0.14984489     0.20500
H2366       H  0.80274968  0.29788604  0.12420701     0.18900
H2367       H  0.81476012  0.30739036  0.14512033     0.18900
H2368       H  0.75454631  0.29365640  0.12993560     0.14700
C2369       C  0.69112106  0.22092674  0.12535255     0.30200
C2370       C  0.68431888  0.22199945  0.13579162    -0.36200
C2371       C  0.68453794  0.21214180  0.14351058     0.16200
C2372       C  0.69097666  0.20184912  0.14115424     0.22000
C2373       C  0.69748005  0.20061246  0.13046755    -0.34300
C2374       C  0.69728213  0.21053036  0.12270426     0.16100
O2375       O  0.69369331  0.22974833  0.11798876    -0.26300
C2376       C  0.70142833  0.22496712  0.11032893     0.05900
C2377       C  0.70389964  0.21296499  0.11271702    -0.31200
O2378       O  0.69134007  0.19451122  0.15041878    -0.23000
C2379       C  0.68500964  0.20019089  0.15876756    -0.03000
C2380       C  0.68045580  0.21112091  0.15486174    -0.17400
H2381       H  0.67989429  0.23029702  0.13815800     0.20500
H2382       H  0.70298998  0.19282051  0.12872171     0.18900
H2383       H  0.71058542  0.20731861  0.10854244     0.18900
H2384       H  0.67577731  0.21782483  0.16005103     0.14700
C2385       C  0.78562368  0.28357663  0.86317401     0.30200
C2386       C  0.79032163  0.28151072  0.85175806    -0.36200
C2387       C  0.79586162  0.29130317  0.84618994     0.16200
C2388       C  0.79662720  0.30243335  0.85142301     0.22000
C2389       C  0.79211057  0.30445220  0.86297162    -0.34300
C2390       C  0.78668975  0.29458223  0.86863354     0.16100
O2391       O  0.77926306  0.27592910  0.86951443    -0.26300
C2392       C  0.77641274  0.28195639  0.87932921     0.05900
C2393       C  0.78084986  0.29361195  0.87933254    -0.31200
O2394       O  0.80160162  0.31046309  0.84429782    -0.23000
C2395       C  0.80419683  0.30434921  0.83442406    -0.03000
C2396       C  0.80082601  0.29237146  0.83514379    -0.17400
H2397       H  0.78942737  0.27293242  0.84738344     0.20500
H2398       H  0.79254608  0.31317033  0.86713610     0.18900
H2399       H  0.77925920  0.30057114  0.88583990     0.18900
H2400       H  0.80153806  0.28551214  0.82839020     0.14700
C2401       C  0.70362921  0.20678813  0.86898658     0.30200
C2402       C  0.70423764  0.19565089  0.86317494    -0.36200
C2403       C  0.69995814  0.19537624  0.85137974     0.16200
C2404       C  0.69533194  0.20533978  0.84571715     0.22000
C2405       C  0.69452075  0.21638455  0.85157415    -0.34300
C2406       C  0.69887125  0.21668241  0.86329376     0.16100
O2407       O  0.70847756  0.20948946  0.87941618    -0.26300
C2408       C  0.70679638  0.22126907  0.88036218     0.05900
C2409       C  0.70078620  0.22614404  0.87062454    -0.31200
O2410       O  0.69280602  0.20336414  0.83440485    -0.23000
C2411       C  0.69576867  0.19194146  0.83272999    -0.03000
C2412       C  0.70023461  0.18651395  0.84303838    -0.17400
H2413       H  0.70833957  0.18790425  0.86732489     0.20500
H2414       H  0.69130818  0.22435676  0.84708705     0.18900
H2415       H  0.69899155  0.23549441  0.86877340     0.18900
H2416       H  0.70374629  0.17754164  0.84412544     0.14700
C2417       C  0.74912583  0.25505333  0.98628997     0.30200
C2418       C  0.75424753  0.26043103  0.99643200    -0.36200
C2419       C  0.75063258  0.25580524  0.00754831     0.16200
C2420       C  0.74252521  0.24653764  0.00858990     0.22000
C2421       C  0.73741911  0.24117289  0.99846980    -0.34300
C2422       C  0.74102350  0.24579013  0.98738017     0.16100
O2423       O  0.75125098  0.25790484  0.97503457    -0.26300
C2424       C  0.74441800  0.25036554  0.96880914     0.05900
C2425       C  0.73784119  0.24264620  0.97606407    -0.31200
O2426       O  0.74021129  0.24374726  0.01979830    -0.23000
C2427       C  0.74691058  0.25130579  0.02610873    -0.03000
C2428       C  0.75362643  0.25900857  0.01893319    -0.17400
H2429       H  0.76058424  0.26773291  0.99570696     0.20500
H2430       H  0.73102480  0.23392126  0.99919719     0.18900
H2431       H  0.73166894  0.23567583  0.97339674     0.18900
H2432       H  0.75965300  0.26606896  0.02169346     0.14700
C2433       C  0.78339737  0.63187778  0.79389841     0.30200
C2434       C  0.78195278  0.64302259  0.79942639    -0.36200
C2435       C  0.79252277  0.64878810  0.80296735     0.16200
C2436       C  0.80378960  0.64397661  0.80121788     0.22000
C2437       C  0.80523179  0.63266363  0.79588994    -0.34300
C2438       C  0.79461739  0.62685495  0.79233047     0.16100
O2439       O  0.77478946  0.62551492  0.78896340    -0.26300
C2440       C  0.78048673  0.61619033  0.78423573     0.05900
C2441       C  0.79284830  0.61647588  0.78614009    -0.31200
O2442       O  0.81244550  0.65141525  0.80439992    -0.23000
C2443       C  0.80661600  0.66108975  0.80830803    -0.03000
C2444       C  0.79418405  0.65985723  0.80765388    -0.17400
H2445       H  0.77320990  0.64713968  0.80046258     0.20500
H2446       H  0.81401808  0.62886752  0.79422436     0.18900
H2447       H  0.79959094  0.61034638  0.78281637     0.18900
H2448       H  0.78725256  0.66629433  0.80975819     0.14700
C2449       C  0.70861079  0.63042478  0.71069182     0.30200
C2450       C  0.70233682  0.64125614  0.71154029    -0.36200
C2451       C  0.69931900  0.64677656  0.70074935     0.16200
C2452       C  0.70229505  0.64205670  0.68980643     0.22000
C2453       C  0.70844046  0.63105225  0.68894115    -0.34300
C2454       C  0.71144212  0.62545966  0.69979885     0.16100
O2455       O  0.71304365  0.62430540  0.71970313    -0.26300
C2456       C  0.71873803  0.61518495  0.71461888     0.05900
C2457       C  0.71799281  0.61536328  0.70222358    -0.31200
O2458       O  0.69950043  0.64937087  0.68093526    -0.23000
C2459       C  0.69457931  0.65884213  0.68630450    -0.03000
C2460       C  0.69420885  0.65760696  0.69864353    -0.17400
H2461       H  0.70033281  0.64532941  0.72005246     0.20500
H2462       H  0.71108086  0.62734171  0.68043727     0.18900
H2463       H  0.72218185  0.60932301  0.69594191     0.18900
H2464       H  0.69136167  0.66399965  0.70528511     0.14700
C2465       C  0.81520729  0.35323884  0.79424402     0.30200
C2466       C  0.81662042  0.35981015  0.78367554    -0.36200
C2467       C  0.80902989  0.36972980  0.78223375     0.16200
C2468       C  0.80078637  0.37319085  0.79073985     0.22000
C2469       C  0.79946599  0.36666713  0.80140447    -0.34300
C2470       C  0.80691771  0.35656057  0.80274866     0.16100
O2471       O  0.81997633  0.34265876  0.79641030    -0.26300
C2472       C  0.81475931  0.33902141  0.80646137     0.05900
C2473       C  0.80657772  0.34740964  0.81086012    -0.31200
O2474       O  0.79387274  0.38210305  0.78704121    -0.23000
C2475       C  0.79770883  0.38428040  0.77600617    -0.03000
C2476       C  0.80706674  0.37681421  0.77254505    -0.17400
H2477       H  0.82262424  0.35688098  0.77667817     0.20500
H2478       H  0.79257716  0.36885991  0.80784278     0.18900
H2479       H  0.80027466  0.34636510  0.81811543     0.18900
H2480       H  0.81136078  0.37628676  0.76391143     0.14700
C2481       C  0.71821801  0.37278444  0.70371709     0.30200
C2482       C  0.70639754  0.36896892  0.70147489    -0.36200
C2483       C  0.70513625  0.35717869  0.69725482     0.16200
C2484       C  0.71482099  0.34970951  0.69532920     0.22000
C2485       C  0.72657737  0.35350784  0.69753429    -0.34300
C2486       C  0.72782647  0.36521505  0.70178230     0.16100
O2487       O  0.72154928  0.38318462  0.70829649    -0.26300
C2488       C  0.73343504  0.38215565  0.70931868     0.05900
C2489       C  0.73777113  0.37118669  0.70534871    -0.31200
O2490       O  0.71162691  0.33895044  0.69175623    -0.23000
C2491       C  0.69970652  0.33944048  0.69135316    -0.03000
C2492       C  0.69516313  0.35059825  0.69469336    -0.17400
H2493       H  0.69872170  0.37467537  0.70315416     0.20500
H2494       H  0.73421719  0.34764094  0.69628064     0.18900
H2495       H  0.74692147  0.36790945  0.70544559     0.18900
H2496       H  0.68589484  0.35342178  0.69538711     0.14700
C2497       C  0.76737174  0.51200457  0.74414066     0.30200
C2498       C  0.77225230  0.50182458  0.74973084    -0.36200
C2499       C  0.76779653  0.49070645  0.74591818     0.16200
C2500       C  0.75912345  0.48966616  0.73721003     0.22000
C2501       C  0.75424112  0.49984694  0.73162304    -0.34300
C2502       C  0.75871669  0.51096059  0.73541541     0.16100
O2503       O  0.77015183  0.52327119  0.74639856    -0.26300
C2504       C  0.76321798  0.52955312  0.73899526     0.05900
C2505       C  0.75592258  0.52234327  0.73193948    -0.31200
O2506       O  0.75628015  0.47840258  0.73500711    -0.23000
C2507       C  0.76321598  0.47210771  0.74240136    -0.03000
C2508       C  0.77056462  0.47931659  0.74941051    -0.17400
H2509       H  0.77904183  0.50252455  0.75658833     0.20500
H2510       H  0.74742594  0.49915097  0.72479013     0.18900
H2511       H  0.74940352  0.52508326  0.72532265     0.18900
H2512       H  0.77702702  0.47657348  0.75608032     0.14700
C2513       C  0.79972383  0.78232313  0.62901371     0.30200
C2514       C  0.80670007  0.77964117  0.63906170    -0.36200
C2515       C  0.80782254  0.78877157  0.64751992     0.16200
C2516       C  0.80248739  0.79985505  0.64623344     0.22000
C2517       C  0.79570757  0.80264547  0.63599136    -0.34300
C2518       C  0.79456922  0.79346679  0.62747515     0.16100
O2519       O  0.79635408  0.77460318  0.62082104    -0.26300
C2520       C  0.78907696  0.78085133  0.61375442     0.05900
C2521       C  0.78770016  0.79270430  0.61738217    -0.31200
O2522       O  0.80351824  0.80648843  0.65594663    -0.23000
C2523       C  0.80966699  0.79956502  0.66350121    -0.03000
C2524       C  0.81258679  0.78847207  0.65865278    -0.17400
H2525       H  0.81041456  0.77079589  0.64051886     0.20500
H2526       H  0.79109853  0.81113119  0.63503682     0.18900
H2527       H  0.78174325  0.79943251  0.61371580     0.18900
H2528       H  0.81674751  0.78091572  0.66309011     0.14700
C2529       C  0.72117515  0.70294352  0.62285254     0.30200
C2530       C  0.72241983  0.69489679  0.63237976    -0.36200
C2531       C  0.71193569  0.69234314  0.63881274     0.16200
C2532       C  0.70095619  0.69744862  0.63618783     0.22000
C2533       C  0.69965260  0.70529216  0.62644074    -0.34300
C2534       C  0.71014636  0.70776096  0.61990187     0.16100
O2535       O  0.72999494  0.70735359  0.61635249    -0.26300
C2536       C  0.72456178  0.71495231  0.60895828     0.05900
C2537       C  0.71219009  0.71552158  0.61069745    -0.31200
O2538       O  0.69274271  0.69505981  0.64437606    -0.23000
C2539       C  0.69853690  0.68825702  0.65229067    -0.03000
C2540       C  0.71044358  0.68613443  0.64912396    -0.17400
H2541       H  0.73107640  0.69130697  0.63494901     0.20500
H2542       H  0.69118261  0.70961307  0.62444147     0.18900
H2543       H  0.70577626  0.72134077  0.60632037     0.18900
H2544       H  0.71730417  0.68167541  0.65433819     0.14700
C2545       C  0.79071264  0.79700988  0.36681187     0.30200
C2546       C  0.79233979  0.80795042  0.36073901    -0.36200
C2547       C  0.79806540  0.80728549  0.34955701     0.16200
C2548       C  0.80200599  0.79661946  0.34476327     0.22000
C2549       C  0.80051579  0.78575873  0.35086319    -0.34300
C2550       C  0.79470282  0.78640282  0.36192147     0.16100
O2551       O  0.78476351  0.79532625  0.37691343    -0.26300
C2552       C  0.78492016  0.78346878  0.37841988     0.05900
C2553       C  0.79103616  0.77753223  0.36937298    -0.31200
O2554       O  0.80642292  0.79787675  0.33393128    -0.23000
C2555       C  0.80535186  0.80952194  0.33162905    -0.03000
C2556       C  0.80023620  0.81584140  0.34109791    -0.17400
H2557       H  0.78898180  0.81632132  0.36426663     0.20500
H2558       H  0.80328341  0.77730883  0.34703172     0.18900
H2559       H  0.79218953  0.76798408  0.36819047     0.18900
H2560       H  0.79800250  0.82525857  0.34155923     0.14700
C2561       C  0.70777487  0.71285496  0.37122435     0.30200
C2562       C  0.69701936  0.71164720  0.36466866    -0.36200
C2563       C  0.69795695  0.70568979  0.35362233     0.16200
C2564       C  0.70872412  0.70123516  0.34946088     0.22000
C2565       C  0.71932881  0.70228595  0.35601454    -0.34300
C2566       C  0.71840403  0.70822248  0.36690800     0.16100
O2567       O  0.70939529  0.71913839  0.38111888    -0.26300
C2568       C  0.72121667  0.71845079  0.38302751     0.05900
C2569       C  0.72716297  0.71168333  0.37449915    -0.31200
O2570       O  0.70796148  0.69695206  0.33860712    -0.23000
C2571       C  0.69653873  0.69856175  0.33556995    -0.03000
C2572       C  0.68980098  0.70391793  0.34463354    -0.17400
H2573       H  0.68865838  0.71554825  0.36768746     0.20500
H2574       H  0.72786040  0.69917583  0.35257610     0.18900
H2575       H  0.73672233  0.71017636  0.37357941     0.18900
H2576       H  0.68052214  0.70677796  0.34441037     0.14700
C2577       C  0.74022848  0.76070042  0.48615929     0.30200
C2578       C  0.73482418  0.75617821  0.49654512    -0.36200
C2579       C  0.73950406  0.76030097  0.50740642     0.16200
C2580       C  0.74888586  0.76831974  0.50806260     0.22000
C2581       C  0.75431144  0.77284596  0.49765268    -0.34300
C2582       C  0.74960237  0.76873672  0.48676083     0.16100
O2583       O  0.73727984  0.75799277  0.47508560    -0.26300
C2584       C  0.74482995  0.76439193  0.46842824     0.05900
C2585       C  0.75271114  0.77125150  0.47523769    -0.31200
O2586       O  0.75188514  0.77084774  0.51919281    -0.23000
C2587       C  0.74431118  0.76435295  0.52575747    -0.03000
C2588       C  0.73641376  0.75763493  0.51885669    -0.17400
H2589       H  0.72748409  0.74985016  0.49618371     0.20500
H2590       H  0.76170228  0.77911380  0.49801630     0.18900
H2591       H  0.75974980  0.77716520  0.47215599     0.18900
H2592       H  0.72946190  0.75156685  0.52183254     0.14700
C2593       C  0.80478629  0.63839737  0.18490627     0.30200
C2594       C  0.79415093  0.63173700  0.18464163    -0.36200
C2595       C  0.79317006  0.62259602  0.19311777     0.16200
C2596       C  0.80217749  0.61992502  0.20115055     0.22000
C2597       C  0.81294745  0.62648740  0.20127206    -0.34300
C2598       C  0.81381037  0.63586672  0.19294575     0.16100
O2599       O  0.80650690  0.64857231  0.17926600    -0.26300
C2600       C  0.81684307  0.65268763  0.18354628     0.05900
C2601       C  0.82176473  0.64514251  0.19218715    -0.31200
O2602       O  0.79865908  0.61217928  0.20934395    -0.23000
C2603       C  0.78725464  0.60999467  0.20654666    -0.03000
C2604       C  0.78338798  0.61619716  0.19653193    -0.17400
H2605       H  0.78672101  0.63420618  0.17892101     0.20500
H2606       H  0.81972853  0.62503937  0.20802955     0.18900
H2607       H  0.82927810  0.64691156  0.19803081     0.18900
H2608       H  0.77437996  0.61670917  0.19294038     0.14700
C2609       C  0.71360814  0.63605184  0.28641960     0.30200
C2610       C  0.70970634  0.64052414  0.29748927    -0.36200
C2611       C  0.70504286  0.65226357  0.29745933     0.16200
C2612       C  0.70419168  0.65908745  0.28723817     0.22000
C2613       C  0.70813943  0.65465746  0.27622132    -0.34300
C2614       C  0.71286336  0.64299448  0.27626832     0.16100
O2615       O  0.71853107  0.62543629  0.28436613    -0.26300
C2616       C  0.72102719  0.62564718  0.27274518     0.05900
C2617       C  0.71768186  0.63636676  0.26730610    -0.31200
O2618       O  0.69977487  0.66988183  0.28923743    -0.23000
C2619       C  0.69778800  0.67009086  0.30093065    -0.03000
C2620       C  0.70092440  0.65933608  0.30650566    -0.17400
H2621       H  0.71040155  0.63528655  0.30558130     0.20500
H2622       H  0.70770724  0.66000348  0.26818013     0.18900
H2623       H  0.71876162  0.63897159  0.25807905     0.18900
H2624       H  0.70043142  0.65709721  0.31587316     0.14700
C2625       C  0.78670709  0.37514142  0.20531264     0.30200
C2626       C  0.79811206  0.37043333  0.20257474    -0.36200
C2627       C  0.79826645  0.35924843  0.19680321     0.16200
C2628       C  0.78792983  0.35312621  0.19391088     0.22000
C2629       C  0.77655837  0.35782836  0.19661461    -0.34300
C2630       C  0.77640538  0.36895780  0.20240449     0.16100
O2631       O  0.78440563  0.38521728  0.21110283    -0.26300
C2632       C  0.77245984  0.38543467  0.21194055     0.05900
C2633       C  0.76706133  0.37553916  0.20665793    -0.31200
O2634       O  0.79013333  0.34260169  0.18902335    -0.23000
C2635       C  0.80207037  0.34189724  0.18871292    -0.03000
C2636       C  0.80759129  0.35205974  0.19343684    -0.17400
H2637       H  0.80629475  0.37504526  0.20498530     0.20500
H2638       H  0.76838784  0.35301440  0.19457941     0.18900
H2639       H  0.75760541  0.37336134  0.20624147     0.18900
H2640       H  0.81706914  0.35378754  0.19461864     0.14700
C2641       C  0.69650420  0.36030334  0.30458768     0.30200
C2642       C  0.70437622  0.37016440  0.30513818    -0.36200
C2643       C  0.70514994  0.37727407  0.29477632     0.16200
C2644       C  0.69870714  0.37472504  0.28459003     0.22000
C2645       C  0.69060680  0.36518211  0.28418510    -0.34300
C2646       C  0.68975257  0.35820567  0.29451154     0.16100
O2647       O  0.69575543  0.35139408  0.31237429    -0.26300
C2648       C  0.68820094  0.34365424  0.30729857     0.05900
C2649       C  0.68420389  0.34755446  0.29620047    -0.31200
O2650       O  0.70183659  0.38144599  0.27546311    -0.23000
C2651       C  0.71022643  0.38863240  0.27983614    -0.03000
C2652       C  0.71261710  0.38654919  0.29185277    -0.17400
H2653       H  0.71004051  0.37174128  0.31280564     0.20500
H2654       H  0.68583592  0.36290053  0.27610574     0.18900
H2655       H  0.67912915  0.34253515  0.28968227     0.18900
H2656       H  0.71945281  0.39065387  0.29733827     0.14700
C2657       C  0.75115605  0.51418917  0.25999633     0.30200
C2658       C  0.74595361  0.50385591  0.26500206    -0.36200
C2659       C  0.75002855  0.49281564  0.26048355     0.16200
C2660       C  0.75861252  0.49199821  0.25165495     0.22000
C2661       C  0.76384192  0.50229076  0.24672095    -0.34300
C2662       C  0.75979099  0.51328395  0.25123312     0.16100
O2663       O  0.74854649  0.52546119  0.26262847    -0.26300
C2664       C  0.75565925  0.53182517  0.25546016     0.05900
C2665       C  0.76284063  0.52466790  0.24822033    -0.31200
O2666       O  0.76090217  0.48082990  0.24853226    -0.23000
C2667       C  0.75371415  0.47433425  0.25545599    -0.03000
C2668       C  0.74675711  0.48132943  0.26309628    -0.17400
H2669       H  0.73912477  0.50438136  0.27184000     0.20500
H2670       H  0.77052973  0.50177103  0.23974585     0.18900
H2671       H  0.76927243  0.52742698  0.24153767     0.18900
H2672       H  0.74011937  0.47839936  0.26950523     0.14700
C2673       C  0.65579844  0.78765182  0.80168861     0.30200
C2674       C  0.65088142  0.77624848  0.79980357    -0.36200
C2675       C  0.63989723  0.77591373  0.79369763     0.16200
C2676       C  0.63402514  0.78609532  0.78983195     0.22000
C2677       C  0.63896660  0.79752403  0.79171974    -0.34300
C2678       C  0.65004880  0.79785509  0.79772338     0.16100
O2679       O  0.66624173  0.78996159  0.80671147    -0.26300
C2680       C  0.66730553  0.80181657  0.80595273     0.05900
C2681       C  0.65744918  0.80720790  0.80043915    -0.31200
O2682       O  0.62403218  0.78362918  0.78396128    -0.23000
C2683       C  0.62357531  0.77170677  0.78399814    -0.03000
C2684       C  0.63322363  0.76645691  0.78992006    -0.17400
H2685       H  0.65545435  0.76817369  0.80264387     0.20500
H2686       H  0.63461562  0.80557197  0.78849301     0.18900
H2687       H  0.65603431  0.81658784  0.79845750     0.18900
H2688       H  0.63517287  0.75702241  0.79103686     0.14700
C2689       C  0.63280964  0.70798943  0.69975945     0.30200
C2690       C  0.63839601  0.70718303  0.68850611    -0.36200
C2691       C  0.64875565  0.69992280  0.68790170     0.16200
C2692       C  0.65316918  0.69386307  0.69768850     0.22000
C2693       C  0.64759551  0.69460651  0.70882693    -0.34300
C2694       C  0.63740090  0.70189595  0.70944692     0.16100
O2695       O  0.62350042  0.71480171  0.70266145    -0.26300
C2696       C  0.62226527  0.71304202  0.71436107     0.05900
C2697       C  0.63066733  0.70509293  0.71898858    -0.31200
O2698       O  0.66330592  0.68825262  0.69548067    -0.23000
C2699       C  0.66558521  0.69064120  0.68410257    -0.03000
C2700       C  0.65677604  0.69785598  0.67886447    -0.17400
H2701       H  0.63514199  0.71216259  0.68088027     0.20500
H2702       H  0.65123037  0.69014029  0.71659936     0.18900
H2703       H  0.63187424  0.70234153  0.72816148     0.18900
H2704       H  0.65660789  0.70154136  0.66994665     0.14700
C2705       C  0.37073855  0.79106217  0.77832135     0.30200
C2706       C  0.35889268  0.79533266  0.77808093    -0.36200
C2707       C  0.35371397  0.79790122  0.78915806     0.16200
C2708       C  0.35974801  0.79636594  0.79977920     0.22000
C2709       C  0.37174989  0.79239611  0.79999712    -0.34300
C2710       C  0.37696987  0.78983601  0.78888009     0.16100
O2711       O  0.37673231  0.78684269  0.76913318    -0.26300
C2712       C  0.38704500  0.78300483  0.77376006     0.05900
C2713       C  0.38777671  0.78474740  0.78601556    -0.31200
O2714       O  0.35275587  0.79818754  0.80911708    -0.23000
C2715       C  0.34213896  0.80104476  0.80440074    -0.03000
C2716       C  0.34226746  0.80106184  0.79200122    -0.17400
H2717       H  0.35385839  0.79603046  0.76986168     0.20500
H2718       H  0.37649080  0.79086875  0.80827610     0.18900
H2719       H  0.39479254  0.78180980  0.79202209     0.18900
H2720       H  0.33486586  0.80246040  0.78591418     0.14700
C2721       C  0.49465222  0.74581295  0.73936117     0.30200
C2722       C  0.50511314  0.74227155  0.73330469    -0.36200
C2723       C  0.51602932  0.74636512  0.73805262     0.16200
C2724       C  0.51664123  0.75341398  0.74810868     0.22000
C2725       C  0.50617678  0.75691419  0.75419943    -0.34300
C2726       C  0.49524897  0.75286494  0.74941712     0.16100
O2727       O  0.48349435  0.74325397  0.73629604    -0.26300
C2728       C  0.47681411  0.74875351  0.74447655     0.05900
C2729       C  0.48366745  0.75484728  0.75288838    -0.31200
O2730       O  0.52779866  0.75623662  0.75096706    -0.23000
C2731       C  0.53444253  0.75093395  0.74262427    -0.03000
C2732       C  0.52757285  0.74467302  0.73435406    -0.17400
H2733       H  0.50475989  0.73679137  0.72537531     0.20500
H2734       H  0.50652418  0.76248668  0.76206471     0.18900
H2735       H  0.48057201  0.76011005  0.76036776     0.18900
H2736       H  0.53063164  0.73956403  0.72675540     0.14700
C2737       C  0.81485935  0.20680452  0.64514363     0.30200
C2738       C  0.81497918  0.21784259  0.63922238    -0.36200
C2739       C  0.80816793  0.21856568  0.62878688     0.16200
C2740       C  0.80180866  0.20901621  0.62424666     0.22000
C2741       C  0.80184918  0.19782703  0.63012115    -0.34300
C2742       C  0.80854046  0.19715406  0.64077153     0.16100
O2743       O  0.81916396  0.20488304  0.65587182    -0.26300
C2744       C  0.81569249  0.19381976  0.65859154     0.05900
C2745       C  0.80907226  0.18849599  0.64945405    -0.31200
O2746       O  0.79501517  0.21216861  0.61505966    -0.23000
C2747       C  0.79704356  0.22388336  0.61384135    -0.03000
C2748       C  0.80516145  0.22827838  0.62212997    -0.17400
H2749       H  0.81940245  0.22559556  0.64296323     0.20500
H2750       H  0.79642336  0.19042627  0.62703824     0.18900
H2751       H  0.80434591  0.18004380  0.64962799     0.18900
H2752       H  0.80784667  0.23748044  0.62353267     0.14700
C2753       C  0.71514636  0.29438475  0.62962788     0.30200
C2754       C  0.70341757  0.29654592  0.63384378    -0.36200
C2755       C  0.70252524  0.30203554  0.64509820     0.16200
C2756       C  0.71250062  0.30523764  0.65163058     0.22000
C2757       C  0.72415245  0.30312724  0.64742971    -0.34300
C2758       C  0.72503316  0.29755070  0.63631357     0.16100
O2759       O  0.71817127  0.28891180  0.61961076    -0.26300
C2760       C  0.73013830  0.28852073  0.62000209     0.05900
C2761       C  0.73484777  0.29375865  0.63020033    -0.31200
O2762       O  0.70973513  0.30969701  0.66211221    -0.23000
C2763       C  0.69780403  0.30938515  0.66246142    -0.03000
C2764       C  0.69278730  0.30473394  0.65205530    -0.17400
H2765       H  0.69556133  0.29386953  0.62884889     0.20500
H2766       H  0.73200555  0.30537952  0.65263838     0.18900
H2767       H  0.74416828  0.29449570  0.63282667     0.18900
H2768       H  0.68341746  0.30316498  0.65006319     0.14700
C2769       C  0.80026077  0.20519363  0.35385783     0.30200
C2770       C  0.80179833  0.21283757  0.36371784    -0.36200
C2771       C  0.79220839  0.21327860  0.37190566     0.16200
C2772       C  0.78182451  0.20672679  0.37036868     0.22000
C2773       C  0.78039841  0.19896188  0.36071060    -0.34300
C2774       C  0.78994994  0.19847679  0.35263460     0.16100
O2775       O  0.80743304  0.20425454  0.34448138    -0.26300
C2776       C  0.80161658  0.19676735  0.33725515     0.05900
C2777       C  0.79074260  0.19288282  0.34196523    -0.31200
O2778       O  0.77347086  0.20940614  0.37821698    -0.23000
C2779       C  0.77855042  0.21763921  0.38508843    -0.03000
C2780       C  0.79026826  0.22036680  0.38166398    -0.17400
H2781       H  0.80965874  0.21844055  0.36465657     0.20500
H2782       H  0.77214757  0.19406111  0.35927964     0.18900
H2783       H  0.78397479  0.18743722  0.33768085     0.18900
H2784       H  0.79610532  0.22720660  0.38525029     0.14700
C2785       C  0.70765394  0.29392437  0.37152974     0.30200
C2786       C  0.70544259  0.30531886  0.36656007    -0.36200
C2787       C  0.70061860  0.30546927  0.35495923     0.16200
C2788       C  0.69810902  0.29511716  0.34876861     0.22000
C2789       C  0.70025523  0.28379512  0.35371840    -0.34300
C2790       C  0.70510921  0.28365290  0.36521776     0.16100
O2791       O  0.71268363  0.29158374  0.38197590    -0.26300
C2792       C  0.71337607  0.27965813  0.38227032     0.05900
C2793       C  0.70874526  0.27430850  0.37208356    -0.31200
O2794       O  0.69403642  0.29721852  0.33796413    -0.23000
C2795       C  0.69387803  0.30909401  0.33708147    -0.03000
C2796       C  0.69788531  0.31473725  0.34742657    -0.17400
H2797       H  0.70757497  0.31347558  0.37128859     0.20500
H2798       H  0.69850556  0.27564312  0.34882357     0.18900
H2799       H  0.70841875  0.26488545  0.36988092     0.18900
H2800       H  0.69888695  0.32422100  0.34908790     0.14700
C2801       C  0.75956734  0.25535213  0.48937013     0.30200
C2802       C  0.76540350  0.25057491  0.49942084    -0.36200
C2803       C  0.76032103  0.25335174  0.51053865     0.16200
C2804       C  0.75024223  0.26044189  0.51174014     0.22000
C2805       C  0.74442383  0.26526726  0.50167646    -0.34300
C2806       C  0.74947139  0.26242741  0.49053407     0.16100
O2807       O  0.76255636  0.25353704  0.47811951    -0.26300
C2808       C  0.75428273  0.25953674  0.47193149     0.05900
C2809       C  0.74593316  0.26527869  0.47921755    -0.31200
O2810       O  0.74703197  0.26185222  0.52300767    -0.23000
C2811       C  0.75513294  0.25552022  0.52911311    -0.03000
C2812       C  0.76359601  0.25003641  0.52177978    -0.17400
H2813       H  0.77328064  0.24494600  0.49862048     0.20500
H2814       H  0.73644848  0.27075722  0.50246882     0.18900
H2815       H  0.73822254  0.27055529  0.47656561     0.18900
H2816       H  0.77113094  0.24447589  0.52435484     0.14700
C2817       C  0.20275936  0.15912616  0.29972317     0.30200
C2818       C  0.20664865  0.14714057  0.30060090    -0.36200
C2819       C  0.20972144  0.14147514  0.28983045     0.16200
C2820       C  0.20902409  0.14725912  0.27898360     0.22000
C2821       C  0.20511555  0.15918798  0.27810267    -0.34300
C2822       C  0.20200876  0.16480663  0.28883347     0.16100
O2823       O  0.19958660  0.16619622  0.30862850    -0.26300
C2824       C  0.19667181  0.17652563  0.30336229     0.05900
C2825       C  0.19803239  0.17613568  0.29103282    -0.31200
O2826       O  0.21247543  0.14042211  0.27006324    -0.23000
C2827       C  0.21543710  0.13005673  0.27517364    -0.03000
C2828       C  0.21389437  0.13016907  0.28749430    -0.17400
H2829       H  0.20729263  0.14257661  0.30908933     0.20500
H2830       H  0.20457789  0.16378901  0.26962390     0.18900
H2831       H  0.19654637  0.18320008  0.28459063     0.18900
H2832       H  0.21570004  0.12304149  0.29379145     0.14700
C2833       C  0.27359564  0.14397992  0.20221353     0.30200
C2834       C  0.27261198  0.15609729  0.19902954    -0.36200
C2835       C  0.28343932  0.16219382  0.19715776     0.16200
C2836       C  0.29450014  0.15675776  0.19832921     0.22000
C2837       C  0.29548698  0.14455976  0.20137874    -0.34300
C2838       C  0.28462517  0.13843131  0.20325878     0.16100
O2839       O  0.26464621  0.13692008  0.20525714    -0.26300
C2840       C  0.26992163  0.12664051  0.20824520     0.05900
C2841       C  0.28237363  0.12700918  0.20709618    -0.31200
O2842       O  0.30344931  0.16435756  0.19680749    -0.23000
C2843       C  0.29805258  0.17479831  0.19456905    -0.03000
C2844       C  0.28557936  0.17393741  0.19466149    -0.17400
H2845       H  0.26399854  0.16056110  0.19842686     0.20500
H2846       H  0.30411725  0.14024882  0.20255184     0.18900
H2847       H  0.28883095  0.12014037  0.20942058     0.18900
H2848       H  0.27897667  0.18095167  0.19349346     0.14700
C2849       C  0.28558359  0.87973776  0.20297640     0.30200
C2850       C  0.29724622  0.87513753  0.20133992    -0.36200
C2851       C  0.29802675  0.86335737  0.19694918     0.16200
C2852       C  0.28803299  0.85658616  0.19431856     0.22000
C2853       C  0.27640220  0.86117441  0.19593255    -0.34300
C2854       C  0.27562519  0.87290363  0.20035189     0.16100
O2855       O  0.28270767  0.89032838  0.20745904    -0.26300
C2856       C  0.27073610  0.89024520  0.20772774     0.05900
C2857       C  0.26589088  0.87961796  0.20338804    -0.31200
O2858       O  0.29078893  0.84563231  0.19083563    -0.23000
C2859       C  0.30274003  0.84528501  0.19121324    -0.03000
C2860       C  0.30771872  0.85612531  0.19493920    -0.17400
H2861       H  0.30515465  0.88028158  0.20357675     0.20500
H2862       H  0.26849193  0.85586309  0.19412302     0.18900
H2863       H  0.25653699  0.87706564  0.20283984     0.18900
H2864       H  0.31707224  0.85829228  0.19635621     0.14700
C2865       C  0.19994893  0.86043235  0.29834008     0.30200
C2866       C  0.20518809  0.87186008  0.29941020    -0.36200
C2867       C  0.20735560  0.87802021  0.28866832     0.16200
C2868       C  0.20455588  0.87318600  0.27771441     0.22000
C2869       C  0.19920497  0.86191318  0.27667172    -0.34300
C2870       C  0.19704088  0.85581654  0.28733963     0.16100
O2871       O  0.19788646  0.85271575  0.30704688    -0.26300
C2872       C  0.19354818  0.84307631  0.30151277     0.05900
C2873       C  0.19279016  0.84459309  0.28923171    -0.31200
O2874       O  0.20794589  0.88001055  0.26878786    -0.23000
C2875       C  0.21293000  0.88945663  0.27397352    -0.03000
C2876       C  0.21279250  0.88877966  0.28637550    -0.17400
H2877       H  0.20771559  0.87552490  0.30796332     0.20500
H2878       H  0.19719505  0.85800624  0.26808752     0.18900
H2879       H  0.19009973  0.83823931  0.28249715     0.18900
H2880       H  0.21654154  0.89503553  0.29270795     0.14700
C2881       C  0.25231686  0.01980660  0.24552652     0.30200
C2882       C  0.25696773  0.00951622  0.24000559    -0.36200
C2883       C  0.25328755  0.99846225  0.24473574     0.16200
C2884       C  0.24553268  0.99752379  0.25426525     0.22000
C2885       C  0.24088686  0.00785531  0.25984028    -0.34300
C2886       C  0.24458822  0.01895975  0.25509193     0.16100
O2887       O  0.25454363  0.03100769  0.24242924    -0.26300
C2888       C  0.24819817  0.03753812  0.25010406     0.05900
C2889       C  0.24180726  0.03049671  0.25820564    -0.31200
O2890       O  0.24313408  0.98622740  0.25703165    -0.23000
C2891       C  0.24945549  0.97985480  0.24915490    -0.03000
C2892       C  0.25595202  0.98704827  0.24132972    -0.17400
H2893       H  0.26300144  0.01008994  0.23247056     0.20500
H2894       H  0.23475909  0.00727992  0.26730034     0.18900
H2895       H  0.23594118  0.03343970  0.26530773     0.18900
H2896       H  0.26168425  0.98428250  0.23405352     0.14700
C2897       C  0.27901672  0.22081999  0.13685863     0.30200
C2898       C  0.27720241  0.21752541  0.14877001    -0.36200
C2899       C  0.28726711  0.21317477  0.15486760     0.16200
C2900       C  0.29843936  0.21216804  0.14967721     0.22000
C2901       C  0.30024390  0.21536811  0.13763561    -0.34300
C2902       C  0.29009269  0.21971482  0.13146455     0.16100
O2903       O  0.27084703  0.22545318  0.12974766    -0.26300
C2904       C  0.27661509  0.22735125  0.11954285     0.05900
C2905       C  0.28866335  0.22391362  0.12003974    -0.31200
O2906       O  0.30667111  0.20834391  0.15731493    -0.23000
C2907       C  0.30061588  0.20680715  0.16747747    -0.03000
C2908       C  0.28850279  0.20967089  0.16640233    -0.17400
H2909       H  0.26854539  0.21846975  0.15305305     0.20500
H2910       H  0.30896784  0.21470302  0.13344172     0.18900
H2911       H  0.29540204  0.22466493  0.11313570     0.18900
H2912       H  0.28161625  0.20960801  0.17319580     0.14700
C2913       C  0.18964560  0.30046837  0.14137621     0.30200
C2914       C  0.19014793  0.29020327  0.13425916    -0.36200
C2915       C  0.19696660  0.29110079  0.12381924     0.16200
C2916       C  0.20283349  0.30143574  0.12042821     0.22000
C2917       C  0.20208830  0.31185749  0.12746557    -0.34300
C2918       C  0.19534351  0.31091098  0.13805842     0.16100
O2919       O  0.18509368  0.30099137  0.15218376    -0.26300
C2920       C  0.18779688  0.31193583  0.15598528     0.05900
C2921       C  0.19411141  0.31858061  0.14747995    -0.31200
O2922       O  0.21003328  0.29969060  0.11117344    -0.23000
C2923       C  0.20871386  0.28808846  0.10868241    -0.03000
C2924       C  0.20063606  0.28239200  0.11623438    -0.17400
H2925       H  0.18617768  0.28182583  0.13708926     0.20500
H2926       H  0.20707026  0.31987294  0.12525971     0.18900
H2927       H  0.19806634  0.32736669  0.14837875     0.18900
H2928       H  0.19859932  0.27292777  0.11672952     0.14700
C2929       C  0.20273408  0.30188417  0.85181820     0.30200
C2930       C  0.20955299  0.30262211  0.86235174    -0.36200
C2931       C  0.21139048  0.29181785  0.86857852     0.16200
C2932       C  0.20688385  0.28102533  0.86463089     0.22000
C2933       C  0.19987441  0.28033924  0.85427825    -0.34300
C2934       C  0.19802512  0.29111019  0.84810232     0.16100
O2935       O  0.20068362  0.31063372  0.84410597    -0.26300
C2936       C  0.19456262  0.30538538  0.83533478     0.05900
C2937       C  0.19257502  0.29325447  0.83747098    -0.31200
O2938       O  0.21047599  0.27188949  0.87120037    -0.23000
C2939       C  0.21723032  0.27685062  0.87962805    -0.03000
C2940       C  0.21806087  0.28924974  0.87849426    -0.17400
H2941       H  0.21350768  0.31097825  0.86527549     0.20500
H2942       H  0.19646318  0.27187554  0.85100232     0.18900
H2943       H  0.18820351  0.28673219  0.83184197     0.18900
H2944       H  0.22333229  0.29537551  0.88381726     0.14700
C2945       C  0.28328672  0.20220040  0.86339361     0.30200
C2946       C  0.28123149  0.19672096  0.85237015    -0.36200
C2947       C  0.29138832  0.19426735  0.84544234     0.16200
C2948       C  0.30288494  0.19702061  0.84900760     0.22000
C2949       C  0.30498654  0.20245071  0.86020213    -0.34300
C2950       C  0.29472898  0.20488528  0.86724250     0.16100
O2951       O  0.27489962  0.20592134  0.87077527    -0.26300
C2952       C  0.28087377  0.21101969  0.87967438     0.05900
C2953       C  0.29331728  0.21058092  0.87802976    -0.31200
O2954       O  0.31095372  0.19438920  0.84068980    -0.23000
C2955       C  0.30447800  0.18983437  0.83172836    -0.03000
C2956       C  0.29224929  0.18957367  0.83431683    -0.17400
H2957       H  0.27224629  0.19477856  0.84925746     0.20500
H2958       H  0.31393186  0.20485330  0.86309210     0.18900
H2959       H  0.30021773  0.21448867  0.88357475     0.18900
H2960       H  0.28487355  0.18670813  0.82876498     0.14700
C2961       C  0.26109886  0.25180369  0.98626814     0.30200
C2962       C  0.26562017  0.24728312  0.99711953    -0.36200
C2963       C  0.26111070  0.25254980  0.00761698     0.16200
C2964       C  0.25272290  0.26164608  0.00746305     0.22000
C2965       C  0.24823042  0.26618131  0.99662784    -0.34300
C2966       C  0.25273432  0.26091968  0.98614778     0.16100
O2967       O  0.26392519  0.24809454  0.97540259    -0.26300
C2968       C  0.25727991  0.25493120  0.96818264     0.05900
C2969       C  0.25016846  0.26307773  0.97443528    -0.31200
O2970       O  0.24964922  0.26518589  0.01829818    -0.23000
C2971       C  0.25615815  0.25829084  0.02557048    -0.03000
C2972       C  0.26345910  0.25025976  0.01937641    -0.17400
H2973       H  0.27215498  0.24010513  0.99736766     0.20500
H2974       H  0.24161740  0.27328882  0.99638279     0.18900
H2975       H  0.24390775  0.26958594  0.97088061     0.18900
H2976       H  0.26955955  0.24364170  0.02300466     0.14700
C2977       C  0.36277946  0.69371379  0.68793953     0.30200
C2978       C  0.37422272  0.69887247  0.68639575    -0.36200
C2979       C  0.37962121  0.70366168  0.69667604     0.16200
C2980       C  0.37402587  0.70345824  0.70764231     0.22000
C2981       C  0.36276892  0.69807855  0.70922305    -0.34300
C2982       C  0.35744203  0.69325285  0.69900762     0.16100
O2983       O  0.35561192  0.68972234  0.67944182    -0.26300
C2984       C  0.34558930  0.68656630  0.68516755     0.05900
C2985       C  0.34630563  0.68852283  0.69739006    -0.31200
O2986       O  0.37989531  0.70961411  0.71574737    -0.23000
C2987       C  0.38955015  0.71365846  0.71005730    -0.03000
C2988       C  0.38994218  0.71016799  0.69815505    -0.17400
H2989       H  0.37838222  0.69957329  0.67771129     0.20500
H2990       H  0.35821677  0.69815897  0.71774039     0.18900
H2991       H  0.33940293  0.68741236  0.70407394     0.18900
H2992       H  0.39633347  0.71285381  0.69140036     0.14700
C2993       C  0.22432596  0.63443136  0.78886692     0.30200
C2994       C  0.22594704  0.64510900  0.79518631    -0.36200
C2995       C  0.21557782  0.65182567  0.79745692     0.16200
C2996       C  0.20431939  0.64837022  0.79373209     0.22000
C2997       C  0.20265786  0.63754788  0.78746606    -0.34300
C2998       C  0.21309293  0.63072220  0.78525150     0.16100
O2999       O  0.23294128  0.62715298  0.78539949    -0.26300
C3000       C  0.22726380  0.61848259  0.77958853     0.05900
C3001       C  0.21484721  0.62017429  0.77922935    -0.31200
O3002       O  0.19599274  0.65641241  0.79641868    -0.23000
C3003       C  0.20203639  0.66509567  0.80197841    -0.03000
C3004       C  0.21425972  0.66261549  0.80287953    -0.17400
H3005       H  0.23475449  0.64809506  0.79795620     0.20500
H3006       H  0.19389860  0.63474928  0.78437645     0.18900
H3007       H  0.20819411  0.61472200  0.77478920     0.18900
H3008       H  0.22132490  0.66803325  0.80665911     0.14700
C3009       C  0.30877413  0.64690122  0.70011798     0.30200
C3010       C  0.30636215  0.64273169  0.71162974    -0.36200
C3011       C  0.30076415  0.63155121  0.71242002     0.16200
C3012       C  0.29771797  0.62480696  0.70259689     0.22000
C3013       C  0.30012995  0.62900912  0.69100089    -0.34300
C3014       C  0.30575016  0.64028274  0.69020392     0.16100
O3015       O  0.31364105  0.65729981  0.69741851    -0.26300
C3016       C  0.31380582  0.65747074  0.68558263     0.05900
C3017       C  0.30899312  0.64707259  0.68059189    -0.31200
O3018       O  0.29221500  0.61471535  0.70555756    -0.23000
C3019       C  0.29174812  0.61511863  0.71742463    -0.03000
C3020       C  0.29695358  0.62538160  0.72210790    -0.17400
H3021       H  0.30854459  0.64794123  0.71945068     0.20500
H3022       H  0.29765781  0.62394572  0.68317084     0.18900
H3023       H  0.30779301  0.64490269  0.67128397     0.18900
H3024       H  0.29763843  0.62804867  0.73134265     0.14700
C3025       C  0.20132695  0.35713435  0.80450892     0.30200
C3026       C  0.20967193  0.36657620  0.80542660    -0.36200
C3027       C  0.21020222  0.37452747  0.79566416     0.16200
C3028       C  0.20308007  0.37313255  0.78569997     0.22000
C3029       C  0.19460073  0.36395835  0.78492745    -0.34300
C3030       C  0.19402303  0.35614416  0.79464582     0.16100
O3031       O  0.20040485  0.34773826  0.81168924    -0.26300
C3032       C  0.19219909  0.34081905  0.80643710     0.05900
C3033       C  0.18804245  0.34566986  0.79577861    -0.31200
O3034       O  0.20607987  0.38037924  0.77695411    -0.23000
C3035       C  0.21508009  0.38676970  0.78135329    -0.03000
C3036       C  0.21801879  0.38361615  0.79301764    -0.17400
H3037       H  0.21579488  0.36726054  0.81287675     0.20500
H3038       H  0.18932287  0.36256133  0.77695614     0.18900
H3039       H  0.18234385  0.34147890  0.78918808     0.18900
H3040       H  0.22550117  0.38675822  0.79830067     0.14700
C3041       C  0.29135867  0.36358945  0.71229364     0.30200
C3042       C  0.30250581  0.35808830  0.70992901    -0.36200
C3043       C  0.30208752  0.34593929  0.70657345     0.16200
C3044       C  0.29143530  0.33973189  0.70555655     0.22000
C3045       C  0.28037800  0.34517586  0.70794250    -0.34300
C3046       C  0.28080594  0.35721538  0.71131227     0.16100
O3047       O  0.28952361  0.37472893  0.71593511    -0.26300
C3048       C  0.27763832  0.37538103  0.71730420     0.05900
C3049       C  0.27182496  0.36474554  0.71449587    -0.31200
O3050       O  0.29299448  0.32855259  0.70222219    -0.23000
C3051       C  0.30482117  0.32742373  0.70109733    -0.03000
C3052       C  0.31098273  0.33796656  0.70374714    -0.17400
H3053       H  0.31089583  0.36289102  0.71074614     0.20500
H3054       H  0.27199888  0.34032339  0.70728239     0.18900
H3055       H  0.26233735  0.36272599  0.71499285     0.18900
H3056       H  0.32055782  0.33957118  0.70349400     0.14700
C3057       C  0.25949129  0.50954887  0.74241153     0.30200
C3058       C  0.26503492  0.49923858  0.73772905    -0.36200
C3059       C  0.26125844  0.48821877  0.74252099     0.16200
C3060       C  0.25265739  0.48744698  0.75133363     0.22000
C3061       C  0.24714547  0.49772767  0.75601044    -0.34300
C3062       C  0.25088101  0.50871076  0.75120491     0.16100
O3063       O  0.26155663  0.52075231  0.73919912    -0.26300
C3064       C  0.25415375  0.52717321  0.74601182     0.05900
C3065       C  0.24730338  0.52012737  0.75365828    -0.31200
O3066       O  0.25038666  0.47630244  0.75449044    -0.23000
C3067       C  0.25759484  0.46976523  0.74762711    -0.03000
C3068       C  0.26459153  0.47670449  0.73997874    -0.17400
H3069       H  0.27177058  0.49977021  0.73080025     0.20500
H3070       H  0.24035880  0.49719026  0.76288987     0.18900
H3071       H  0.24065255  0.52298875  0.76008171     0.18900
H3072       H  0.27111484  0.47371248  0.73348517     0.14700
C3073       C  0.21241412  0.78213212  0.62396788     0.30200
C3074       C  0.20157393  0.78396465  0.63021662    -0.36200
C3075       C  0.20241893  0.79048679  0.64092965     0.16200
C3076       C  0.21315761  0.79502989  0.64502202     0.22000
C3077       C  0.22390435  0.79325666  0.63880044    -0.34300
C3078       C  0.22309687  0.78659841  0.62829355     0.16100
O3079       O  0.21398458  0.77549698  0.61430843    -0.26300
C3080       C  0.22584091  0.77568470  0.61257678     0.05900
C3081       C  0.23189872  0.78244773  0.62102629    -0.31200
O3082       O  0.21224354  0.79984557  0.65565938    -0.23000
C3083       C  0.20079179  0.79832356  0.65867100    -0.03000
C3084       C  0.19417093  0.79264437  0.64973538    -0.17400
H3085       H  0.19319287  0.78009906  0.62724267     0.20500
H3086       H  0.23242958  0.79634182  0.64224849     0.18900
H3087       H  0.24148440  0.78375483  0.62193328     0.18900
H3088       H  0.18493373  0.78969004  0.64998632     0.14700
C3089       C  0.29950680  0.69642392  0.61614862     0.30200
C3090       C  0.30044396  0.68594510  0.62306451    -0.36200
C3091       C  0.30887656  0.68620612  0.63238845     0.16200
C3092       C  0.31599761  0.69604300  0.63461909     0.22000
C3093       C  0.31518147  0.70642151  0.62763306    -0.34300
C3094       C  0.30662779  0.70624439  0.61849725     0.16100
O3095       O  0.29122672  0.69872026  0.60800791    -0.26300
C3096       C  0.29305054  0.71017530  0.60522644     0.05900
C3097       C  0.30249784  0.71528191  0.61148054    -0.31200
O3098       O  0.32186288  0.69515717  0.64475956    -0.23000
C3099       C  0.31857414  0.68459759  0.64919160    -0.03000
C3100       C  0.31051562  0.67859391  0.64178175    -0.17400
H3101       H  0.29443378  0.67844810  0.62180555     0.20500
H3102       H  0.32021406  0.71441935  0.62976228     0.18900
H3103       H  0.30539175  0.72453115  0.61140290     0.18900
H3104       H  0.30543690  0.67056511  0.64367039     0.14700
C3105       C  0.21789687  0.80290627  0.36787455     0.30200
C3106       C  0.21941057  0.81029590  0.35790608    -0.36200
C3107       C  0.20927176  0.81196293  0.35073475     0.16200
C3108       C  0.19832650  0.80669508  0.35310277     0.22000
C3109       C  0.19672158  0.79951344  0.36331495    -0.34300
C3110       C  0.20691332  0.79787251  0.37057786     0.16100
O3111       O  0.22655783  0.79909033  0.37489972    -0.26300
C3112       C  0.22111089  0.79164539  0.38239829     0.05900
C3113       C  0.20883368  0.79059919  0.38023040    -0.31200
O3114       O  0.19055127  0.80824328  0.34430071    -0.23000
C3115       C  0.19663379  0.81464730  0.33627848    -0.03000
C3116       C  0.20825818  0.81730905  0.33993268    -0.17400
H3117       H  0.22808579  0.81394992  0.35553061     0.20500
H3118       H  0.18832301  0.79499847  0.36511658     0.18900
H3119       H  0.20250149  0.78462709  0.38449265     0.18900
H3120       H  0.21527703  0.82164309  0.33483881     0.14700
C3121       C  0.29227082  0.72492448  0.35812658     0.30200
C3122       C  0.29640537  0.72686411  0.34647414    -0.36200
C3123       C  0.29904769  0.71658891  0.33982469     0.16200
C3124       C  0.29771216  0.70517608  0.34433611     0.22000
C3125       C  0.29370608  0.70322740  0.35607032    -0.34300
C3126       C  0.29105925  0.71353021  0.36274443     0.16100
O3127       O  0.28851832  0.73324661  0.36553284    -0.26300
C3128       C  0.28489939  0.72718456  0.37509430     0.05900
C3129       C  0.28633537  0.71485004  0.37391918    -0.31200
O3130       O  0.30005817  0.69686881  0.33632820    -0.23000
C3131       C  0.30299762  0.70302333  0.32655888    -0.03000
C3132       C  0.30254741  0.71535752  0.32825140    -0.17400
H3133       H  0.29716620  0.73577153  0.34273507     0.20500
H3134       H  0.29242088  0.69430495  0.35962428     0.18900
H3135       H  0.28371853  0.70788582  0.38010988     0.18900
H3136       H  0.30410899  0.72241856  0.32182948     0.14700
C3137       C  0.24944968  0.73631766  0.48293874     0.30200
C3138       C  0.25480652  0.73068139  0.49282802    -0.36200
C3139       C  0.25034453  0.73397767  0.50407998     0.16200
C3140       C  0.24125088  0.74225667  0.50550728     0.22000
C3141       C  0.23586814  0.74784012  0.49562951    -0.34300
C3142       C  0.24032248  0.74455098  0.48439594     0.16100
O3143       O  0.25233269  0.73474834  0.47161678    -0.26300
C3144       C  0.24494311  0.74207434  0.46573361     0.05900
C3145       C  0.23727169  0.74837980  0.47325908    -0.31200
O3146       O  0.23862880  0.74419833  0.51681824    -0.23000
C3147       C  0.24610769  0.73704468  0.52276799    -0.03000
C3148       C  0.25359807  0.73045410  0.51528082    -0.17400
H3149       H  0.26201474  0.72425073  0.49182716     0.20500
H3150       H  0.22876521  0.75438446  0.49663826     0.18900
H3151       H  0.23050143  0.75492406  0.47088826     0.18900
H3152       H  0.26053888  0.72411860  0.51772907     0.14700
C3153       C  0.63812147  0.20973946  0.78360484     0.30200
C3154       C  0.64205755  0.19840757  0.78759658    -0.36200
C3155       C  0.65408658  0.19769940  0.79148216     0.16200
C3156       C  0.66162390  0.20749420  0.79153751     0.22000
C3157       C  0.65774534  0.21871654  0.78746973    -0.34300
C3158       C  0.64582841  0.21939388  0.78353280     0.16100
O3159       O  0.62731258  0.21254846  0.77947404    -0.26300
C3160       C  0.62820917  0.22414487  0.77669214     0.05900
C3161       C  0.63954323  0.22879824  0.77904812    -0.31200
O3162       O  0.67242621  0.20496798  0.79563911    -0.23000
C3163       C  0.67196609  0.19334419  0.79818016    -0.03000
C3164       C  0.66076377  0.18831056  0.79572855    -0.17400
H3165       H  0.63618931  0.19069357  0.78763099     0.20500
H3166       H  0.66363905  0.22641269  0.78736415     0.18900
H3167       H  0.64274933  0.23782953  0.77762469     0.18900
H3168       H  0.65793509  0.17912794  0.79697930     0.14700
C3169       C  0.62864758  0.30611311  0.71108378     0.30200
C3170       C  0.63811614  0.31432521  0.71166401    -0.36200
C3171       C  0.64604499  0.31436259  0.70198258     0.16200
C3172       C  0.64483115  0.30683176  0.69233795     0.22000
C3173       C  0.63506867  0.29888599  0.69155823    -0.34300
C3174       C  0.62705971  0.29887275  0.70125789     0.16100
O3175       O  0.62151522  0.30320151  0.71999352    -0.26300
C3176       C  0.61502030  0.29418153  0.71577012     0.05900
C3177       C  0.61797805  0.29117238  0.70410924    -0.31200
O3178       O  0.65440150  0.30696279  0.68533751    -0.23000
C3179       C  0.66171530  0.31488694  0.69043947    -0.03000
C3180       C  0.65690965  0.31969232  0.70084168    -0.17400
H3181       H  0.63973932  0.31964696  0.71954608     0.20500
H3182       H  0.63427231  0.29253339  0.68433819     0.18900
H3183       H  0.61488558  0.28354581  0.69903812     0.18900
H3184       H  0.66136433  0.32529440  0.70733388     0.14700
C3185       C  0.37016978  0.19529073  0.77852425     0.30200
C3186       C  0.35919419  0.18945704  0.77682061    -0.36200
C3187       C  0.35180003  0.18845187  0.78684600     0.16200
C3188       C  0.35488089  0.19287136  0.79789201     0.22000
C3189       C  0.36606341  0.19853638  0.79966258    -0.34300
C3190       C  0.37355481  0.19952730  0.78956171     0.16100
O3191       O  0.37776227  0.19825652  0.77003756    -0.26300
C3192       C  0.38632363  0.20433600  0.77561878     0.05900
C3193       C  0.38426427  0.20534228  0.78783600    -0.31200
O3194       O  0.34597979  0.19189056  0.80570692    -0.23000
C3195       C  0.33715826  0.18673775  0.79950864    -0.03000
C3196       C  0.34039206  0.18436087  0.78777671    -0.17400
H3197       H  0.35635905  0.18640630  0.76812064     0.20500
H3198       H  0.36852580  0.20235627  0.80816526     0.18900
H3199       H  0.38937769  0.21041149  0.79427886     0.18900
H3200       H  0.33480751  0.18077898  0.78074583     0.14700
C3201       C  0.35544095  0.29401528  0.70302595     0.30200
C3202       C  0.36627136  0.29540921  0.70940583    -0.36200
C3203       C  0.37397594  0.28536289  0.70972367     0.16200
C3204       C  0.37111836  0.27472751  0.70417177     0.22000
C3205       C  0.36051881  0.27344549  0.69759959    -0.34300
C3206       C  0.35288954  0.28340590  0.69729790     0.16100
O3207       O  0.34633277  0.30167679  0.70256241    -0.26300
C3208       C  0.33790504  0.29583110  0.69643568     0.05900
C3209       C  0.34159709  0.28448127  0.69289915    -0.31200
O3210       O  0.37870092  0.26604173  0.70672700    -0.23000
C3211       C  0.38674096  0.27110675  0.71385922    -0.03000
C3212       C  0.38434504  0.28318582  0.71597825    -0.17400
H3213       H  0.36826508  0.30351957  0.71427113     0.20500
H3214       H  0.35806782  0.26501401  0.69354013     0.18900
H3215       H  0.33635650  0.27770262  0.68840034     0.18900
H3216       H  0.38895850  0.28915506  0.72201604     0.14700
C3217       C  0.49375123  0.24762549  0.74485770     0.30200
C3218       C  0.50366019  0.25271252  0.73899937    -0.36200
C3219       C  0.51504680  0.24920081  0.74310048     0.16200
C3220       C  0.51664970  0.24122795  0.75236311     0.22000
C3221       C  0.50670290  0.23611905  0.75825153    -0.34300
C3222       C  0.49526360  0.23961838  0.75411204     0.16100
O3223       O  0.48233143  0.24971068  0.74242410    -0.26300
C3224       C  0.47633466  0.24294409  0.75018205     0.05900
C3225       C  0.48393991  0.23644060  0.75768669    -0.31200
O3226       O  0.52815315  0.23923417  0.75468394    -0.23000
C3227       C  0.53398162  0.24602951  0.74678282    -0.03000
C3228       C  0.52623613  0.25241395  0.73937213    -0.17400
H3229       H  0.50256387  0.25898569  0.73171813     0.20500
H3230       H  0.50780177  0.22984384  0.76552992     0.18900
H3231       H  0.48148969  0.23031793  0.76476103     0.18900
H3232       H  0.52850473  0.25854908  0.73224962     0.14700
C3233       C  0.65037813  0.80647910  0.19727897     0.30200
C3234       C  0.63951743  0.80870003  0.20339132    -0.36200
C3235       C  0.63149120  0.79896272  0.20427206     0.16200
C3236       C  0.63407938  0.78789501  0.19944926     0.22000
C3237       C  0.64474216  0.78575462  0.19325276    -0.34300
C3238       C  0.65268713  0.79537412  0.19243062     0.16100
O3239       O  0.65966732  0.81382854  0.19620276    -0.26300
C3240       C  0.66793371  0.80724937  0.19058212     0.05900
C3241       C  0.66400492  0.79573088  0.18806179    -0.31200
O3242       O  0.62618844  0.77967438  0.20236647    -0.23000
C3243       C  0.61825584  0.78542277  0.20908389    -0.03000
C3244       C  0.62098346  0.79753252  0.21051197    -0.17400
H3245       H  0.63770127  0.81721341  0.20761368     0.20500
H3246       H  0.64696752  0.77697636  0.18982200     0.18900
H3247       H  0.66905659  0.78846241  0.18411165     0.18900
H3248       H  0.61650304  0.80400582  0.21613623     0.14700
C3249       C  0.63160742  0.71421840  0.28614582     0.30200
C3250       C  0.63636529  0.71158347  0.29749210    -0.36200
C3251       C  0.64791539  0.70639395  0.29769619     0.16200
C3252       C  0.65426785  0.70391924  0.28744521     0.22000
C3253       C  0.64953040  0.70651727  0.27616507    -0.34300
C3254       C  0.63808383  0.71174922  0.27596805     0.16100
O3255       O  0.62123663  0.71957312  0.28378592    -0.26300
C3256       C  0.62115628  0.72056729  0.27193740     0.05900
C3257       C  0.63141788  0.71581921  0.26666502    -0.31200
O3258       O  0.66507524  0.69960409  0.28961382    -0.23000
C3259       C  0.66579927  0.69926932  0.30143926    -0.03000
C3260       C  0.65532694  0.70338042  0.30695621    -0.17400
H3261       H  0.63153630  0.71368998  0.30558696     0.20500
H3262       H  0.65456291  0.70484841  0.26808850     0.18900
H3263       H  0.63377510  0.71563640  0.25731615     0.18900
H3264       H  0.65355409  0.70440948  0.31637174     0.14700
C3265       C  0.35608224  0.81075094  0.19699494     0.30200
C3266       C  0.36682663  0.80418252  0.19558017    -0.36200
C3267       C  0.37416675  0.80311876  0.20577522     0.16200
C3268       C  0.37103098  0.80810505  0.21657671     0.22000
C3269       C  0.36052271  0.81485352  0.21790452    -0.34300
C3270       C  0.35330016  0.81597638  0.20777129     0.16100
O3271       O  0.34722280  0.81181481  0.18915733    -0.26300
C3272       C  0.33875001  0.81787140  0.19504548     0.05900
C3273       C  0.34218482  0.82078883  0.20658845    -0.31200
O3274       O  0.37834524  0.80499309  0.22525407    -0.23000
C3275       C  0.38648161  0.79805772  0.22002231    -0.03000
C3276       C  0.38442234  0.79662605  0.20785089    -0.17400
H3277       H  0.36902592  0.79974671  0.18730163     0.20500
H3278       H  0.35786021  0.81849978  0.22643197     0.18900
H3279       H  0.33679869  0.82499325  0.21343720     0.18900
H3280       H  0.38922656  0.79093552  0.20167881     0.14700
C3281       C  0.34391554  0.71669866  0.29125929     0.30200
C3282       C  0.34864525  0.72795180  0.28831822    -0.36200
C3283       C  0.36069932  0.72814404  0.28470526     0.16200
C3284       C  0.36773424  0.71799566  0.28402227     0.22000
C3285       C  0.36296821  0.70667256  0.28696681    -0.34300
C3286       C  0.35082735  0.70646537  0.29055809     0.16100
O3287       O  0.33278436  0.71452189  0.29464007    -0.26300
C3288       C  0.33241077  0.70269915  0.29611405     0.05900
C3289       C  0.34342278  0.69720076  0.29369140    -0.31200
O3290       O  0.37877029  0.72035168  0.28021864    -0.23000
C3291       C  0.37874232  0.73218031  0.27845147    -0.03000
C3292       C  0.36770891  0.73742294  0.28112502    -0.17400
H3293       H  0.34325223  0.73601263  0.28871569     0.20500
H3294       H  0.36830121  0.69858685  0.28638538     0.18900
H3295       H  0.34564186  0.68777298  0.29406905     0.18900
H3296       H  0.36513175  0.74674270  0.28042271     0.14700
C3297       C  0.51284328  0.75365340  0.25244998     0.30200
C3298       C  0.50251283  0.74793533  0.25691453    -0.36200
C3299       C  0.49142332  0.75203698  0.25246612     0.16200
C3300       C  0.49056570  0.76113778  0.24418340     0.22000
C3301       C  0.50088284  0.76687798  0.23975110    -0.34300
C3302       C  0.51195597  0.76278259  0.24420166     0.16100
O3303       O  0.52410952  0.75120625  0.25532161    -0.26300
C3304       C  0.53055438  0.75889047  0.24885112     0.05900
C3305       C  0.52343364  0.76630911  0.24176386    -0.31200
O3306       O  0.47933278  0.76349370  0.24116748    -0.23000
C3307       C  0.47283786  0.75581547  0.24759380    -0.03000
C3308       C  0.47991044  0.74847206  0.25481270    -0.17400
H3309       H  0.50308382  0.74075928  0.26338322     0.20500
H3310       H  0.50031614  0.77402554  0.23324931     0.18900
H3311       H  0.52628943  0.77325652  0.23566081     0.18900
H3312       H  0.47700399  0.74150495  0.26086878     0.14700
C3313       C  0.20520678  0.20598074  0.63095338     0.30200
C3314       C  0.19718799  0.20643579  0.64052299    -0.36200
C3315       C  0.19541739  0.19570526  0.64670681     0.16200
C3316       C  0.20110346  0.18514916  0.64377046     0.22000
C3317       C  0.20895752  0.18460795  0.63392052    -0.34300
C3318       C  0.21074155  0.19542776  0.62765292     0.16100
O3319       O  0.20890515  0.21525568  0.62472244    -0.26300
C3320       C  0.21680272  0.21067613  0.61712037     0.05900
C3321       C  0.21827143  0.19833302  0.61843109    -0.31200
O3322       O  0.19880864  0.17648529  0.65153827    -0.23000
C3323       C  0.19154449  0.18163886  0.65950270    -0.03000
C3324       C  0.18907420  0.19355705  0.65676830    -0.17400
H3325       H  0.19299437  0.21472994  0.64328076     0.20500
H3326       H  0.21368540  0.17646989  0.63159237     0.18900
H3327       H  0.22448948  0.19253037  0.61378838     0.18900
H3328       H  0.18373673  0.20000368  0.66160868     0.14700
C3329       C  0.27926846  0.29003539  0.63816638     0.30200
C3330       C  0.27784193  0.29509776  0.64952216    -0.36200
C3331       C  0.28845123  0.29756140  0.65579552     0.16200
C3332       C  0.29969682  0.29524939  0.65119328     0.22000
C3333       C  0.30113128  0.29047201  0.63970520    -0.34300
C3334       C  0.29051669  0.28796668  0.63343514     0.16100
O3335       O  0.27059309  0.28587462  0.63134095    -0.26300
C3336       C  0.27631370  0.28118905  0.62202966     0.05900
C3337       C  0.28873640  0.28232200  0.62279947    -0.31200
O3338       O  0.30831682  0.29702309  0.65905722    -0.23000
C3339       C  0.30255593  0.30056934  0.66884478    -0.03000
C3340       C  0.29015592  0.30117343  0.66726244    -0.17400
H3341       H  0.26906384  0.29644076  0.65344106     0.20500
H3342       H  0.30989651  0.28829549  0.63614585     0.18900
H3343       H  0.29547319  0.27879605  0.61680361     0.18900
H3344       H  0.28328554  0.30317411  0.67376968     0.14700
C3345       C  0.20387895  0.22154445  0.37336440     0.30200
C3346       C  0.19551633  0.22327400  0.36421045    -0.36200
C3347       C  0.19434778  0.21390861  0.35603423     0.16200
C3348       C  0.20098699  0.20348976  0.35669086     0.22000
C3349       C  0.20913609  0.20158525  0.36614136    -0.34300
C3350       C  0.21027799  0.21100159  0.37442863     0.16100
O3351       O  0.20739700  0.22978619  0.38096481    -0.26300
C3352       C  0.21601451  0.22448143  0.38724969     0.05900
C3353       C  0.21815433  0.21271310  0.38366743    -0.31200
O3354       O  0.19973311  0.19677813  0.34703495    -0.23000
C3355       C  0.19210041  0.20297908  0.34021322    -0.03000
C3356       C  0.18839311  0.21361643  0.34550335    -0.17400
H3357       H  0.19078942  0.23167954  0.36310078     0.20500
H3358       H  0.21472420  0.19366097  0.36658996     0.18900
H3359       H  0.22515322  0.20671380  0.38671963     0.18900
H3360       H  0.18306413  0.22070268  0.34155204     0.14700
C3361       C  0.29309885  0.29868715  0.37696420     0.30200
C3362       C  0.30463575  0.30111304  0.37242961    -0.36200
C3363       C  0.30508596  0.30622544  0.36095585     0.16200
C3364       C  0.29489988  0.30883094  0.35445282     0.22000
C3365       C  0.28342062  0.30647247  0.35898718    -0.34300
C3366       C  0.28297493  0.30131166  0.37036822     0.16100
O3367       O  0.29050458  0.29325559  0.38714930    -0.26300
C3368       C  0.27856149  0.29237771  0.38699219     0.05900
C3369       C  0.27345609  0.29728895  0.37677673    -0.31200
O3370       O  0.29733635  0.31298630  0.34372064    -0.23000
C3371       C  0.30927075  0.31307904  0.34322744    -0.03000
C3372       C  0.31457911  0.30898152  0.35375592    -0.17400
H3373       H  0.31269071  0.29885335  0.37734068     0.20500
H3374       H  0.27538569  0.30820992  0.35383965     0.18900
H3375       H  0.26408630  0.29748681  0.37422685     0.18900
H3376       H  0.32401615  0.30780101  0.35572095     0.14700
C3377       C  0.25302749  0.24277150  0.49226297     0.30200
C3378       C  0.24846775  0.23655420  0.50219252    -0.36200
C3379       C  0.25275691  0.24016544  0.51340618     0.16200
C3380       C  0.26096389  0.24929102  0.51479464     0.22000
C3381       C  0.26551876  0.25552626  0.50485610    -0.34300
C3382       C  0.26123394  0.25190307  0.49362655     0.16100
O3383       O  0.25027650  0.24081719  0.48096910    -0.26300
C3384       C  0.25679673  0.24880068  0.47494885     0.05900
C3385       C  0.26377927  0.25595060  0.48239880    -0.31200
O3386       O  0.26369886  0.25120543  0.52611047    -0.23000
C3387       C  0.25716688  0.24318320  0.53208067    -0.03000
C3388       C  0.25019350  0.23608030  0.52459486    -0.17400
H3389       H  0.24202222  0.22937827  0.50124024     0.20500
H3390       H  0.27196088  0.26270476  0.50581011     0.18900
H3391       H  0.26987057  0.26306896  0.47991008     0.18900
H3392       H  0.24406907  0.22897381  0.52703564     0.14700
C3393       C  0.18975126  0.64531485  0.20165742     0.30200
C3394       C  0.19118774  0.63946155  0.21260888    -0.36200
C3395       C  0.19894431  0.62959519  0.21266443     0.16200
C3396       C  0.20474146  0.62553342  0.20258525     0.22000
C3397       C  0.20318367  0.63134325  0.19154192    -0.34300
C3398       C  0.19554320  0.64140200  0.19152314     0.16100
O3399       O  0.18425998  0.65562574  0.20009103    -0.26300
C3400       C  0.18648206  0.65850592  0.18879905     0.05900
C3401       C  0.19340142  0.64988723  0.18296111    -0.31200
O3402       O  0.21236037  0.61673794  0.20495765    -0.23000
C3403       C  0.21146318  0.61528804  0.21671233    -0.03000
C3404       C  0.20325096  0.62304154  0.22193508    -0.17400
H3405       H  0.18712331  0.64283385  0.22069430     0.20500
H3406       H  0.20810811  0.62863292  0.18368535     0.18900
H3407       H  0.19728595  0.65032330  0.17414350     0.18900
H3408       H  0.20117570  0.62406667  0.23129746     0.14700
C3409       C  0.29143673  0.63127225  0.28624693     0.30200
C3410       C  0.30202178  0.63819747  0.28661829    -0.36200
C3411       C  0.30122449  0.64925264  0.29262842     0.16200
C3412       C  0.29074986  0.65309269  0.29795656     0.22000
C3413       C  0.28028707  0.64616067  0.29772263    -0.34300
C3414       C  0.28104849  0.63526190  0.29164325     0.16100
O3415       O  0.28970362  0.62129407  0.28009819    -0.26300
C3416       C  0.27804264  0.61897918  0.28157710     0.05900
C3417       C  0.27228209  0.62737031  0.28870501    -0.31200
O3418       O  0.29150285  0.66410471  0.30200685    -0.23000
C3419       C  0.30262266  0.66754202  0.29934307    -0.03000
C3420       C  0.30916324  0.65858999  0.29354690    -0.17400
H3421       H  0.31011249  0.63545519  0.28202875     0.20500
H3422       H  0.27192323  0.64936184  0.30146837     0.18900
H3423       H  0.26281556  0.62795777  0.29082239     0.18900
H3424       H  0.31807277  0.65914548  0.28975671     0.14700
C3425       C  0.20697559  0.37455096  0.20635160     0.30200
C3426       C  0.20347488  0.37032729  0.19506867    -0.36200
C3427       C  0.19806379  0.35894279  0.19482793     0.16200
C3428       C  0.19610472  0.35227626  0.20500070     0.22000
C3429       C  0.19949966  0.35651517  0.21624068    -0.34300
C3430       C  0.20501955  0.36777685  0.21645806     0.16100
O3431       O  0.21296805  0.38452287  0.20863066    -0.26300
C3432       C  0.21490042  0.38403807  0.22034175     0.05900
C3433       C  0.21009994  0.37383465  0.22562970    -0.31200
O3434       O  0.19158621  0.34162708  0.20273002    -0.23000
C3435       C  0.19063917  0.34133956  0.19092190    -0.03000
C3436       C  0.19451079  0.35192296  0.18552085    -0.17400
H3437       H  0.20523952  0.37535849  0.18701007     0.20500
H3438       H  0.19831967  0.35119810  0.22422642     0.18900
H3439       H  0.21064763  0.37105168  0.23485320     0.18900
H3440       H  0.19504293  0.35400842  0.17612234     0.14700
C3441       C  0.30734719  0.35853194  0.30220916     0.30200
C3442       C  0.30866954  0.36906736  0.29536746    -0.36200
C3443       C  0.29795190  0.37470901  0.29166607     0.16200
C3444       C  0.28677656  0.37016859  0.29443720     0.22000
C3445       C  0.28547078  0.35981117  0.30136868    -0.34300
C3446       C  0.29611358  0.35428230  0.30511679     0.16100
O3447       O  0.31603121  0.35134704  0.30601318    -0.26300
C3448       C  0.31023869  0.34243570  0.31150907     0.05900
C3449       C  0.29781382  0.34391741  0.31122643    -0.31200
O3450       O  0.27796367  0.37627453  0.28949570    -0.23000
C3451       C  0.28343845  0.38501614  0.28355909    -0.03000
C3452       C  0.29591512  0.38456086  0.28462128    -0.17400
H3453       H  0.31741247  0.37245149  0.29285728     0.20500
H3454       H  0.27672954  0.35612566  0.30343528     0.18900
H3455       H  0.29086540  0.33801399  0.31448007     0.18900
H3456       H  0.30249220  0.39029067  0.28039639     0.14700
C3457       C  0.25229856  0.48993892  0.23738919     0.30200
C3458       C  0.24731436  0.50026058  0.23212332    -0.36200
C3459       C  0.25122282  0.51130401  0.23671162     0.16200
C3460       C  0.25943272  0.51213833  0.24587386     0.22000
C3461       C  0.26437534  0.50183271  0.25115106    -0.34300
C3462       C  0.26052362  0.49081011  0.24653068     0.16100
O3463       O  0.24997471  0.47869720  0.23450092    -0.26300
C3464       C  0.25684222  0.47227661  0.24186937     0.05900
C3465       C  0.26359565  0.47937388  0.24953478    -0.31200
O3466       O  0.26194115  0.52334192  0.24869019    -0.23000
C3467       C  0.25526840  0.52982577  0.24123127    -0.03000
C3468       C  0.24839000  0.52279116  0.23358837    -0.17400
H3469       H  0.24088758  0.49972294  0.22491541     0.20500
H3470       H  0.27084590  0.50237175  0.25831937     0.18900
H3471       H  0.26980932  0.47652915  0.25639174     0.18900
H3472       H  0.24226206  0.52570606  0.22668328     0.14700
C3473       C  0.65037128  0.19552780  0.21185691     0.30200
C3474       C  0.64639586  0.19629842  0.22368218    -0.36200
C3475       C  0.63450576  0.20012741  0.22528410     0.16200
C3476       C  0.62697882  0.20294452  0.21591851     0.22000
C3477       C  0.63091728  0.20202255  0.20407702    -0.34300
C3478       C  0.64284350  0.19825449  0.20247596     0.16100
O3479       O  0.66141588  0.19309501  0.20836258    -0.26300
C3480       C  0.66099789  0.19424191  0.19656632     0.05900
C3481       C  0.64961085  0.19738001  0.19242101    -0.31200
O3482       O  0.61652010  0.20721076  0.21951655    -0.23000
C3483       C  0.61738378  0.20712559  0.23134204    -0.03000
C3484       C  0.62835469  0.20274228  0.23540361    -0.17400
H3485       H  0.65230680  0.19450504  0.23112933     0.20500
H3486       H  0.62523874  0.20452018  0.19665164     0.18900
H3487       H  0.64679944  0.19933115  0.18340302     0.18900
H3488       H  0.63156135  0.20210335  0.24448132     0.14700
C3489       C  0.62980708  0.28654410  0.29841401     0.30200
C3490       C  0.63367081  0.29836359  0.30033003    -0.36200
C3491       C  0.64565467  0.29974832  0.30401110     0.16200
C3492       C  0.65327542  0.29016790  0.30582044     0.22000
C3493       C  0.64938579  0.27835878  0.30403700    -0.34300
C3494       C  0.63746025  0.27698439  0.30023393     0.16100
O3495       O  0.61924553  0.28320942  0.29418150    -0.26300
C3496       C  0.62016188  0.27135170  0.29325290     0.05900
C3497       C  0.63129442  0.26701167  0.29695159    -0.31200
O3498       O  0.66426455  0.29352387  0.30866108    -0.23000
C3499       C  0.66375157  0.30543616  0.30864394    -0.03000
C3500       C  0.65234109  0.30979576  0.30585027    -0.17400
H3501       H  0.62786512  0.30596874  0.29868243     0.20500
H3502       H  0.65536159  0.27078716  0.30515826     0.18900
H3503       H  0.63454157  0.25787450  0.29684989     0.18900
H3504       H  0.64942254  0.31899957  0.30498518     0.14700
C3505       C  0.37039396  0.21468793  0.21019203     0.30200
C3506       C  0.36396918  0.21425645  0.19938523    -0.36200
C3507       C  0.35317489  0.20769523  0.19953261     0.16200
C3508       C  0.34913476  0.20185455  0.20959510     0.22000
C3509       C  0.35554591  0.20223379  0.22032886    -0.34300
C3510       C  0.36616325  0.20892937  0.22023188     0.16100
O3511       O  0.38007970  0.22117097  0.21241529    -0.26300
C3512       C  0.38194695  0.21960169  0.22404545     0.05900
C3513       C  0.37354610  0.21209809  0.22933774    -0.31200
O3514       O  0.33828040  0.19743155  0.20826765    -0.23000
C3515       C  0.33513328  0.20045614  0.19722138    -0.03000
C3516       C  0.34415044  0.20678739  0.19128805    -0.17400
H3517       H  0.36684937  0.21921023  0.19160174     0.20500
H3518       H  0.35211479  0.19816599  0.22839735     0.18900
H3519       H  0.37270077  0.20976141  0.23866268     0.18900
H3520       H  0.34371904  0.21111584  0.18267328     0.14700
C3521       C  0.37557784  0.29067877  0.30210688     0.30200
C3522       C  0.36609992  0.28941335  0.31017234    -0.36200
C3523       C  0.35926301  0.29969198  0.31232183     0.16200
C3524       C  0.36148304  0.31056783  0.30690138     0.22000
C3525       C  0.37133247  0.31195423  0.29912389    -0.34300
C3526       C  0.37825571  0.30159608  0.29696740     0.16100
O3527       O  0.38186826  0.28181064  0.29757849    -0.26300
C3528       C  0.38890582  0.28703443  0.28956374     0.05900
C3529       C  0.38718784  0.29938631  0.28886560    -0.31200
O3530       O  0.35266612  0.31836629  0.30867261    -0.23000
C3531       C  0.34482721  0.31237012  0.31540808    -0.03000
C3532       C  0.34862282  0.30079191  0.31803720    -0.17400
H3533       H  0.36366891  0.28078081  0.31384620     0.20500
H3534       H  0.37295750  0.32026654  0.29442686     0.18900
H3535       H  0.39110513  0.30558735  0.28255157     0.18900
H3536       H  0.34356758  0.29376812  0.32240637     0.14700
C3537       C  0.49023815  0.25812029  0.25327165     0.30200
C3538       C  0.50068310  0.26290081  0.25842462    -0.36200
C3539       C  0.51153030  0.25714570  0.25555380     0.16200
C3540       C  0.51209119  0.24735769  0.24810160     0.22000
C3541       C  0.50163154  0.24255633  0.24295567    -0.34300
C3542       C  0.49077107  0.24831620  0.24583570     0.16100
O3543       O  0.47916189  0.26209831  0.25477951    -0.26300
C3544       C  0.47245978  0.25477158  0.24821104     0.05900
C3545       C  0.47922053  0.24600640  0.24245051    -0.31200
O3546       O  0.52319224  0.24338833  0.24665572    -0.23000
C3547       C  0.52984845  0.25071151  0.25329757    -0.03000
C3548       C  0.52304119  0.25944150  0.25903297    -0.17400
H3549       H  0.50037174  0.27057404  0.26428654     0.20500
H3550       H  0.50193789  0.23486246  0.23711959     0.18900
H3551       H  0.47608704  0.23894495  0.23665037     0.18900
H3552       H  0.52611777  0.26645451  0.26491976     0.14700
C3553       C  0.72040839  0.76328911  0.77995599     0.30200
C3554       C  0.70994978  0.76587358  0.78644568    -0.36200
C3555       C  0.71005010  0.77658911  0.79293505     0.16200
C3556       C  0.71973681  0.78428327  0.79292576     0.22000
C3557       C  0.73029183  0.78156911  0.78665273    -0.34300
C3558       C  0.73021825  0.77081424  0.78023601     0.16100
O3559       O  0.72199594  0.75412809  0.77274078    -0.26300
C3560       C  0.73302093  0.75571946  0.76843860     0.05900
C3561       C  0.73858533  0.76594284  0.77283505    -0.31200
O3562       O  0.71746179  0.79434600  0.79860056    -0.23000
C3563       C  0.70623642  0.79302295  0.80245168    -0.03000
C3564       C  0.70120485  0.78209488  0.79929142    -0.17400
H3565       H  0.70214149  0.76012543  0.78614647     0.20500
H3566       H  0.73787036  0.78762141  0.78645188     0.18900
H3567       H  0.74731095  0.76953659  0.77057037     0.18900
H3568       H  0.69209836  0.77903606  0.80071332     0.14700
C3569       C  0.77038612  0.71563880  0.77938135     0.30200
C3570       C  0.77272068  0.70515807  0.78582789    -0.36200
C3571       C  0.78358505  0.70486486  0.79204030     0.16200
C3572       C  0.79168588  0.71420063  0.79187045     0.22000
C3573       C  0.78918911  0.72486770  0.78565024    -0.34300
C3574       C  0.77822767  0.72519878  0.77945670     0.16100
O3575       O  0.76118537  0.71737520  0.77227643    -0.26300
C3576       C  0.76299552  0.72824621  0.76779352     0.05900
C3577       C  0.77340380  0.73364974  0.77202486    -0.31200
O3578       O  0.80172726  0.71153262  0.79753745    -0.23000
C3579       C  0.79989936  0.70042253  0.80148618    -0.03000
C3580       C  0.78873726  0.69587638  0.79839545    -0.17400
H3581       H  0.76666282  0.69758971  0.78567591     0.20500
H3582       H  0.79551111  0.73221061  0.78533403     0.18900
H3583       H  0.77714803  0.74223367  0.76953222     0.18900
H3584       H  0.78516386  0.68702669  0.80005693     0.14700
C3585       C  0.76700440  0.76832298  0.72329108     0.30200
C3586       C  0.76895698  0.77295366  0.71191090    -0.36200
C3587       C  0.77918636  0.77999009  0.71052360     0.16200
C3588       C  0.78702345  0.78250115  0.71968143     0.22000
C3589       C  0.78493675  0.77797362  0.73126072    -0.34300
C3590       C  0.77463156  0.77075022  0.73266114     0.16100
O3591       O  0.75847665  0.76076818  0.72611115    -0.26300
C3592       C  0.76045126  0.75820217  0.73749400     0.05900
C3593       C  0.77036467  0.76423271  0.74215310    -0.31200
O3594       O  0.79642341  0.78877553  0.71597740    -0.23000
C3595       C  0.79450483  0.79013113  0.70430187    -0.03000
C3596       C  0.78383255  0.78491713  0.70054594    -0.17400
H3597       H  0.76312207  0.77081621  0.70450566     0.20500
H3598       H  0.79110025  0.77960820  0.73852441     0.18900
H3599       H  0.77421260  0.76343993  0.75096885     0.18900
H3600       H  0.78004287  0.78456817  0.69168345     0.14700
C3601       C  0.71826167  0.71532327  0.72701625     0.30200
C3602       C  0.70704228  0.71122029  0.72300330    -0.36200
C3603       C  0.70714695  0.70472828  0.71228896     0.16200
C3604       C  0.71754509  0.70263001  0.70591168     0.22000
C3605       C  0.72873292  0.70639106  0.71008342    -0.34300
C3606       C  0.72864049  0.71266250  0.72083496     0.16100
O3607       O  0.72027454  0.72237437  0.73625348    -0.26300
C3608       C  0.73211612  0.72405619  0.73598858     0.05900
C3609       C  0.73774699  0.71801804  0.72671959    -0.31200
O3610       O  0.71554776  0.69725862  0.69570085    -0.23000
C3611       C  0.70374347  0.69566091  0.69559826    -0.03000
C3612       C  0.69801567  0.70001101  0.70571635    -0.17400
H3613       H  0.69879763  0.71324749  0.72769116     0.20500
H3614       H  0.73691432  0.70483755  0.70511082     0.18900
H3615       H  0.74714669  0.71821578  0.72426418     0.18900
H3616       H  0.68849572  0.70014058  0.70766019     0.14700
C3617       C  0.27993270  0.77062546  0.77527701     0.30200
C3618       C  0.27910627  0.77582848  0.78660037    -0.36200
C3619       C  0.28891905  0.78284261  0.79010561     0.16200
C3620       C  0.29876965  0.78481725  0.78289679     0.22000
C3621       C  0.29957263  0.77964721  0.77156249    -0.34300
C3622       C  0.28987787  0.77243503  0.76815915     0.16100
O3623       O  0.27211986  0.76320467  0.77046383    -0.26300
C3624       C  0.27722028  0.76010345  0.76021256     0.05900
C3625       C  0.28826324  0.76559698  0.75830502    -0.31200
O3626       O  0.30722671  0.79106955  0.78824801    -0.23000
C3627       C  0.30279151  0.79300275  0.79906623    -0.03000
C3628       C  0.29140607  0.78813750  0.80070113    -0.17400
H3629       H  0.27155080  0.77417026  0.79243631     0.20500
H3630       H  0.30741068  0.78079253  0.76597748     0.18900
H3631       H  0.29429036  0.76459703  0.75080963     0.18900
H3632       H  0.28596756  0.78809596  0.80869150     0.14700
C3633       C  0.21888991  0.71717081  0.78515242     0.30200
C3634       C  0.22130049  0.72747312  0.77837697    -0.36200
C3635       C  0.23242211  0.72771613  0.77251450     0.16200
C3636       C  0.24053935  0.71838502  0.77315025     0.22000
C3637       C  0.23823656  0.70819401  0.78013043    -0.34300
C3638       C  0.22716889  0.70801235  0.78610013     0.16100
O3639       O  0.20879613  0.71477973  0.79080642    -0.26300
C3640       C  0.21067371  0.70401739  0.79558976     0.05900
C3641       C  0.22198943  0.69939544  0.79300792    -0.31200
O3642       O  0.24999521  0.72012119  0.76629664    -0.23000
C3643       C  0.24800533  0.73078727  0.76135016    -0.03000
C3644       C  0.23725042  0.73597854  0.76495563    -0.17400
H3645       H  0.21483618  0.73466890  0.77750983     0.20500
H3646       H  0.24450822  0.70079712  0.78063688     0.18900
H3647       H  0.22565710  0.69073519  0.79538575     0.18900
H3648       H  0.23332709  0.74435333  0.76202138     0.14700
C3649       C  0.22689938  0.78483817  0.70830576     0.30200
C3650       C  0.23883223  0.78136093  0.70987781    -0.36200
C3651       C  0.24122691  0.77446385  0.71997289     0.16200
C3652       C  0.23253227  0.77120969  0.72812197     0.22000
C3653       C  0.22054901  0.77504474  0.72672864    -0.34300
C3654       C  0.21810707  0.78195400  0.71649562     0.16100
O3655       O  0.22260171  0.79011911  0.69876740    -0.26300
C3656       C  0.21089805  0.79085221  0.70083208     0.05900
C3657       C  0.20752070  0.78604369  0.71178660    -0.31200
O3658       O  0.23660036  0.76335497  0.73600777    -0.23000
C3659       C  0.24797730  0.76162567  0.73273190    -0.03000
C3660       C  0.25132864  0.76843710  0.72293776    -0.17400
H3661       H  0.24565105  0.78326508  0.70327045     0.20500
H3662       H  0.21352212  0.77225236  0.73278047     0.18900
H3663       H  0.19855026  0.78503024  0.71535509     0.18900
H3664       H  0.25975098  0.76823349  0.71812296     0.14700
C3665       C  0.28540011  0.72240220  0.71207962     0.30200
C3666       C  0.28799332  0.72044770  0.70004499    -0.36200
C3667       C  0.29590797  0.71102692  0.69761876     0.16200
C3668       C  0.30099595  0.70400161  0.70639038     0.22000
C3669       C  0.29849781  0.70605545  0.71848975    -0.34300
C3670       C  0.29053039  0.71550510  0.72093701     0.16100
O3671       O  0.27794669  0.73050217  0.71626909    -0.26300
C3672       C  0.27827625  0.72887018  0.72800411     0.05900
C3673       C  0.28603591  0.71969580  0.73144087    -0.31200
O3674       O  0.30795416  0.69550542  0.70198764    -0.23000
C3675       C  0.30727532  0.69712575  0.69024488    -0.03000
C3676       C  0.29991684  0.70671118  0.68706527    -0.17400
H3677       H  0.28397798  0.72579623  0.69304414     0.20500
H3678       H  0.30236982  0.70059194  0.72547837     0.18900
H3679       H  0.28790706  0.71649561  0.74035484     0.18900
H3680       H  0.29771939  0.71005957  0.67828641     0.14700
C3681       C  0.78477144  0.27808230  0.76482427     0.30200
C3682       C  0.78995618  0.28932333  0.76649461    -0.36200
C3683       C  0.79569098  0.29110007  0.77739089     0.16200
C3684       C  0.79648127  0.28240940  0.78609767     0.22000
C3685       C  0.79147456  0.27096548  0.78431011    -0.34300
C3686       C  0.78556561  0.26919190  0.77335380     0.16100
O3687       O  0.77767171  0.27522545  0.75595981    -0.26300
C3688       C  0.77384071  0.26430240  0.75865537     0.05900
C3689       C  0.77856220  0.25996977  0.76933312    -0.31200
O3690       O  0.80150754  0.28649397  0.79597410    -0.23000
C3691       C  0.80383724  0.29794888  0.79348907    -0.03000
C3692       C  0.80047646  0.30119569  0.78199400    -0.17400
H3693       H  0.78897872  0.29644020  0.76000273     0.20500
H3694       H  0.79163893  0.26415938  0.79118387     0.18900
H3695       H  0.77626290  0.25178428  0.77397345     0.18900
H3696       H  0.80114387  0.30982315  0.77764975     0.14700
C3697       C  0.72627148  0.20724566  0.78628627     0.30200
C3698       C  0.73605763  0.20870881  0.77853803    -0.36200
C3699       C  0.73862475  0.22049929  0.77508750     0.16200
C3700       C  0.73194207  0.23015191  0.77897097     0.22000
C3701       C  0.72234407  0.22871085  0.78695287    -0.34300
C3702       C  0.71977538  0.21691741  0.79038876     0.16100
O3703       O  0.72172751  0.19696691  0.78981635    -0.26300
C3704       C  0.71219310  0.20003292  0.79629872     0.05900
C3705       C  0.71057689  0.21237290  0.79702959    -0.31200
O3706       O  0.73481441  0.24013128  0.77341751    -0.23000
C3707       C  0.74358912  0.23690535  0.76603852    -0.03000
C3708       C  0.74644394  0.22481119  0.76676261    -0.17400
H3709       H  0.74095588  0.20113135  0.77500027     0.20500
H3710       H  0.71685907  0.23619559  0.78977022     0.18900
H3711       H  0.70344774  0.21729518  0.80137137     0.18900
H3712       H  0.75250464  0.21976276  0.76114235     0.14700
C3713       C  0.78641555  0.21099537  0.70547611     0.30200
C3714       C  0.77595462  0.21786802  0.70583850    -0.36200
C3715       C  0.77320123  0.22307095  0.71678424     0.16200
C3716       C  0.78020026  0.22170283  0.72681760     0.22000
C3717       C  0.79068584  0.21457375  0.72651486    -0.34300
C3718       C  0.79347546  0.20928254  0.71544034     0.16100
O3719       O  0.79088092  0.20599819  0.69588383    -0.26300
C3720       C  0.80094736  0.20083569  0.69959738     0.05900
C3721       C  0.80304003  0.20247563  0.71174876    -0.31200
O3722       O  0.77613795  0.22815356  0.73587628    -0.23000
C3723       C  0.76643182  0.23365633  0.73147304    -0.03000
C3724       C  0.76420729  0.23066173  0.71965783    -0.17400
H3725       H  0.77050290  0.21935591  0.69799025     0.20500
H3726       H  0.79641144  0.21350174  0.73423204     0.18900
H3727       H  0.81068457  0.19954153  0.71694702     0.18900
H3728       H  0.75720009  0.23384086  0.71377887     0.14700
C3729       C  0.73099659  0.27947945  0.72047716     0.30200
C3730       C  0.73013307  0.28687706  0.71038327    -0.36200
C3731       C  0.71874249  0.29174954  0.70807572     0.16200
C3732       C  0.70891437  0.28949967  0.71521470     0.22000
C3733       C  0.70980096  0.28217895  0.72532835    -0.34300
C3734       C  0.72116101  0.27728846  0.72760488     0.16100
O3735       O  0.74065920  0.27371305  0.72413108    -0.26300
C3736       C  0.73696798  0.26767257  0.73370250     0.05900
C3737       C  0.72487816  0.26965424  0.73629445    -0.31200
O3738       O  0.69909606  0.29479020  0.71131968    -0.23000
C3739       C  0.70265114  0.30058324  0.70157413    -0.03000
C3740       C  0.71480861  0.29899742  0.69910838    -0.17400
H3741       H  0.73776282  0.28859856  0.70466277     0.20500
H3742       H  0.70212893  0.28030303  0.73094492     0.18900
H3743       H  0.71944745  0.26599594  0.74339271     0.18900
H3744       H  0.71999723  0.30250405  0.69174491     0.14700
C3745       C  0.78556766  0.79075338  0.28144980     0.30200
C3746       C  0.77606403  0.78840178  0.27361763    -0.36200
C3747       C  0.77537993  0.77668997  0.26923116     0.16200
C3748       C  0.78360134  0.76790210  0.27214832     0.22000
C3749       C  0.79303308  0.77021284  0.28014868    -0.34300
C3750       C  0.79360880  0.78192024  0.28469849     0.16100
O3751       O  0.78811246  0.80120609  0.28623671    -0.26300
C3752       C  0.79783908  0.79907598  0.29279643     0.05900
C3753       C  0.80163436  0.78719223  0.29222675    -0.31200
O3754       O  0.78159350  0.75777070  0.26642274    -0.23000
C3755       C  0.77182097  0.76008255  0.25995920    -0.03000
C3756       C  0.76756838  0.77169314  0.26139248    -0.17400
H3757       H  0.76973153  0.79527988  0.27099388     0.20500
H3758       H  0.79956052  0.76342439  0.28251731     0.18900
H3759       H  0.80939842  0.78311435  0.29636840     0.18900
H3760       H  0.76010529  0.77598608  0.25690846     0.14700
C3761       C  0.78338480  0.72156306  0.21365163     0.30200
C3762       C  0.78903468  0.71975822  0.20262815    -0.36200
C3763       C  0.79578174  0.70920452  0.20157369     0.16200
C3764       C  0.79664573  0.70088071  0.21064586     0.22000
C3765       C  0.79110840  0.70274658  0.22169633    -0.34300
C3766       C  0.78459321  0.71341429  0.22283281     0.16100
O3767       O  0.77674023  0.73085046  0.21663868    -0.26300
C3768       C  0.77378019  0.72870042  0.22793053     0.05900
C3769       C  0.77849199  0.71800375  0.23226818    -0.31200
O3770       O  0.80301925  0.69144136  0.20759869    -0.23000
C3771       C  0.80646579  0.69383698  0.19651147    -0.03000
C3772       C  0.80230237  0.70479384  0.19229695    -0.17400
H3773       H  0.78827055  0.72615556  0.19541208     0.20500
H3774       H  0.79186034  0.69634475  0.22891004     0.18900
H3775       H  0.77747857  0.71416994  0.24107280     0.18900
H3776       H  0.80356065  0.70871675  0.18356140     0.14700
C3777       C  0.73935807  0.77622708  0.21631895     0.30200
C3778       C  0.73730877  0.78287367  0.20586657    -0.36200
C3779       C  0.72669884  0.78968671  0.20561625     0.16200
C3780       C  0.71863647  0.78979115  0.21495785     0.22000
C3781       C  0.72081384  0.78337070  0.22546794    -0.34300
C3782       C  0.73144476  0.77668561  0.22576379     0.16100
O3783       O  0.74822516  0.76860909  0.21819775    -0.26300
C3784       C  0.74602007  0.76428007  0.22904644     0.05900
C3785       C  0.73572757  0.76904444  0.23419216    -0.31200
O3786       O  0.70881048  0.79585474  0.21248129    -0.23000
C3787       C  0.71063552  0.79988653  0.20148446    -0.03000
C3788       C  0.72166113  0.79642256  0.19676536    -0.17400
H3789       H  0.74335698  0.78246477  0.19833199     0.20500
H3790       H  0.71445819  0.78328213  0.23276073     0.18900
H3791       H  0.73161282  0.76674531  0.24262130     0.18900
H3792       H  0.72510065  0.79800683  0.18788376     0.14700
C3793       C  0.71454155  0.72161231  0.28487628     0.30200
C3794       C  0.72180373  0.73160450  0.28255026    -0.36200
C3795       C  0.72770372  0.73166781  0.27151904     0.16200
C3796       C  0.72661291  0.72246855  0.26340345     0.22000
C3797       C  0.71914101  0.71261258  0.26561913    -0.34300
C3798       C  0.71316532  0.71259812  0.27660189     0.16100
O3799       O  0.70900270  0.71924769  0.29497318    -0.26300
C3800       C  0.70388421  0.70865752  0.29309425     0.05900
C3801       C  0.70608928  0.70412692  0.28177918    -0.31200
O3802       O  0.73375867  0.72381994  0.25415337    -0.23000
C3803       C  0.73937346  0.73410686  0.25626547    -0.03000
C3804       C  0.73590681  0.73943939  0.26690908    -0.17400
H3805       H  0.72310226  0.73861895  0.28905807     0.20500
H3806       H  0.71838390  0.70526165  0.25940047     0.18900
H3807       H  0.70349905  0.69553868  0.27815743     0.18900
H3808       H  0.73944735  0.74745893  0.27099777     0.14700
C3809       C  0.26359940  0.21503453  0.77400347     0.30200
C3810       C  0.26588524  0.20474378  0.78084143    -0.36200
C3811       C  0.27743731  0.20381043  0.78571848     0.16200
C3812       C  0.28619034  0.21233654  0.78384441     0.22000
C3813       C  0.28382730  0.22275739  0.77720358    -0.34300
C3814       C  0.27220642  0.22377798  0.77246531     0.16100
O3815       O  0.25364687  0.21738066  0.76810067    -0.26300
C3816       C  0.25579304  0.22786979  0.76287139     0.05900
C3817       C  0.26716993  0.23234187  0.76534119    -0.31200
O3818       O  0.29658584  0.20926634  0.78857539    -0.23000
C3819       C  0.29442884  0.19871567  0.79369861    -0.03000
C3820       C  0.28263047  0.19491713  0.79227429    -0.17400
H3821       H  0.25920190  0.19782218  0.78205465     0.20500
H3822       H  0.29064539  0.22947371  0.77563570     0.18900
H3823       H  0.27131557  0.24040240  0.76193778     0.18900
H3824       H  0.27859070  0.18661238  0.79518589     0.14700
C3825       C  0.20598578  0.28243068  0.78752881     0.30200
C3826       C  0.20458357  0.27100889  0.78261491    -0.36200
C3827       C  0.21419238  0.26682411  0.77573819     0.16200
C3828       C  0.22455737  0.27332796  0.77390139     0.22000
C3829       C  0.22592721  0.28482881  0.77876631    -0.34300
C3830       C  0.21622018  0.28909940  0.78553809     0.16100
O3831       O  0.19803880  0.28809963  0.79411702    -0.26300
C3832       C  0.20314742  0.29861342  0.79628531     0.05900
C3833       C  0.21446713  0.29977999  0.79114112    -0.31200
O3834       O  0.23226623  0.26771621  0.76691479    -0.23000
C3835       C  0.22668002  0.25755746  0.76417269    -0.03000
C3836       C  0.21542053  0.25653520  0.76945174    -0.17400
H3837       H  0.19649476  0.26581814  0.78392592     0.20500
H3838       H  0.23389604  0.29013589  0.77722628     0.18900
H3839       H  0.22051610  0.30734052  0.79153073     0.18900
H3840       H  0.20896955  0.24935129  0.76861340     0.14700
C3841       C  0.26335828  0.26894853  0.72183662     0.30200
C3842       C  0.26604356  0.27584408  0.71169930    -0.36200
C3843       C  0.27768352  0.28062923  0.71118377     0.16200
C3844       C  0.28613206  0.27859738  0.71995355     0.22000
C3845       C  0.28336936  0.27191102  0.73018443    -0.34300
C3846       C  0.27168769  0.26729422  0.73078999     0.16100
O3847       O  0.25329072  0.26308018  0.72385852    -0.26300
C3848       C  0.25512479  0.25777976  0.73434369     0.05900
C3849       C  0.26637727  0.26017128  0.73911872    -0.31200
O3850       O  0.29662907  0.28338932  0.71740006    -0.23000
C3851       C  0.29486284  0.28873878  0.70694288    -0.03000
C3852       C  0.28321858  0.28737096  0.70265706    -0.17400
H3853       H  0.25958735  0.27719912  0.70461699     0.20500
H3854       H  0.28993767  0.27025863  0.73710152     0.18900
H3855       H  0.27030205  0.25667836  0.74722325     0.18900
H3856       H  0.27949183  0.29056078  0.69433072     0.14700
C3857       C  0.20058687  0.19866731  0.71427795     0.30200
C3858       C  0.20361425  0.20185519  0.72596506    -0.36200
C3859       C  0.21084144  0.21203419  0.72715816     0.16200
C3860       C  0.21487871  0.21857545  0.71751666     0.22000
C3861       C  0.21157612  0.21557905  0.70584531    -0.34300
C3862       C  0.20426468  0.20545175  0.70465109     0.16100
O3863       O  0.19468209  0.18899870  0.71105721    -0.26300
C3864       C  0.19439439  0.18972545  0.69924118     0.05900
C3865       C  0.20010122  0.19981492  0.69474176    -0.31200
O3866       O  0.22231165  0.22718006  0.72062624    -0.23000
C3867       C  0.22298111  0.22620132  0.73242293    -0.03000
C3868       C  0.21590243  0.21701705  0.73698372    -0.17400
H3869       H  0.20086226  0.19654417  0.73356161     0.20500
H3870       H  0.21478917  0.22056936  0.69821324     0.18900
H3871       H  0.20148993  0.20227545  0.68551259     0.18900
H3872       H  0.21506230  0.21413773  0.74615743     0.14700
C3873       C  0.26583575  0.78392080  0.21479729     0.30200
C3874       C  0.26807475  0.79185501  0.20535705    -0.36200
C3875       C  0.27939344  0.79732066  0.20532947     0.16200
C3876       C  0.28795139  0.79504029  0.21392891     0.22000
C3877       C  0.28566249  0.78722551  0.22345228    -0.34300
C3878       C  0.27429710  0.78186343  0.22355401     0.16100
O3879       O  0.25602055  0.77754057  0.21636090    -0.26300
C3880       C  0.25815980  0.77145989  0.22634007     0.05900
C3881       C  0.26936690  0.77381624  0.23123962    -0.31200
O3882       O  0.29812701  0.80063987  0.21182502    -0.23000
C3883       C  0.29604413  0.80668715  0.20180594    -0.03000
C3884       C  0.28450401  0.80498976  0.19737852    -0.17400
H3885       H  0.26152144  0.79350960  0.19842657     0.20500
H3886       H  0.29233415  0.78533161  0.23021043     0.18900
H3887       H  0.27342035  0.76989611  0.23909762     0.18900
H3888       H  0.28057946  0.80845639  0.18925796     0.14700
C3889       C  0.21805856  0.78323916  0.26344483     0.30200
C3890       C  0.20788852  0.79020436  0.26596401    -0.36200
C3891       C  0.20779915  0.79585796  0.27707889     0.16200
C3892       C  0.21704265  0.79464768  0.28517901     0.22000
C3893       C  0.22733497  0.78787865  0.28254992    -0.34300
C3894       C  0.22747632  0.78229564  0.27138406     0.16100
O3895       O  0.21961042  0.77653941  0.25396105    -0.26300
C3896       C  0.23021804  0.77133925  0.25574665     0.05900
C3897       C  0.23561663  0.77466328  0.26638830    -0.31200
O3898       O  0.21470945  0.80000725  0.29535136    -0.23000
C3899       C  0.20390117  0.80483647  0.29370443    -0.03000
C3900       C  0.19918090  0.80260219  0.28246357    -0.17400
H3901       H  0.20041764  0.79087511  0.25983133     0.20500
H3902       H  0.23456380  0.78676889  0.28890000     0.18900
H3903       H  0.24396865  0.77144597  0.27015360     0.18900
H3904       H  0.19047244  0.80508234  0.27895901     0.14700
C3905       C  0.27157096  0.73593882  0.26651136     0.30200
C3906       C  0.27824411  0.73552758  0.27720389    -0.36200
C3907       C  0.28450635  0.72475805  0.27949208     0.16200
C3908       C  0.28414347  0.71517846  0.27175335     0.22000
C3909       C  0.27773092  0.71567162  0.26108865    -0.34300
C3910       C  0.27151520  0.72629476  0.25886478     0.16100
O3911       O  0.26434792  0.74465493  0.26282545    -0.26300
C3912       C  0.25963067  0.74037595  0.25276045     0.05900
C3913       C  0.26392357  0.72905464  0.24988389    -0.31200
O3914       O  0.28977163  0.70569640  0.27584768    -0.23000
C3915       C  0.29399093  0.70910885  0.28635812    -0.03000
C3916       C  0.29110322  0.72095357  0.28911451    -0.17400
H3917       H  0.27823288  0.74288828  0.28345529     0.20500
H3918       H  0.27725171  0.70808602  0.25512265     0.18900
H3919       H  0.26156326  0.72345031  0.24239378     0.18900
H3920       H  0.29304499  0.72580407  0.29722067     0.14700
C3921       C  0.21625351  0.73195605  0.21032602     0.30200
C3922       C  0.21232214  0.72817316  0.19904600    -0.36200
C3923       C  0.20523364  0.71776635  0.19890205     0.16200
C3924       C  0.20238983  0.71148703  0.20913518     0.22000
C3925       C  0.20595942  0.71547207  0.22036371    -0.34300
C3926       C  0.21287312  0.72588711  0.22051008     0.16100
O3927       O  0.22381091  0.74078340  0.21259317    -0.26300
C3928       C  0.22510999  0.74034690  0.22438605     0.05900
C3929       C  0.21833058  0.73139832  0.22973618    -0.31200
O3930       O  0.19655451  0.70151121  0.20696558    -0.23000
C3931       C  0.19542196  0.70146713  0.19521010    -0.03000
C3932       C  0.20051390  0.71139392  0.18967736    -0.17400
H3933       H  0.21493480  0.73275848  0.19095138     0.20500
H3934       H  0.20383580  0.71055784  0.22841098     0.18900
H3935       H  0.21809714  0.72887579  0.23904947     0.18900
H3936       H  0.20105950  0.71333573  0.18024218     0.14700
C3937       C  0.77010774  0.28392696  0.22011309     0.30200
C3938       C  0.77036046  0.29339111  0.21185690    -0.36200
C3939       C  0.78168082  0.29624189  0.20715927     0.16200
C3940       C  0.79200325  0.29026768  0.21049144     0.22000
C3941       C  0.79176066  0.28087792  0.21876666    -0.34300
C3942       C  0.78045286  0.27794719  0.22332805     0.16100
O3943       O  0.76050243  0.27953784  0.22539748    -0.26300
C3944       C  0.76472677  0.27052931  0.23198356     0.05900
C3945       C  0.77714387  0.26920692  0.23106733    -0.31200
O3946       O  0.80158737  0.29429612  0.20497779    -0.23000
C3947       C  0.79741679  0.30295907  0.19794958    -0.03000
C3948       C  0.78505800  0.30458754  0.19892734    -0.17400
H3949       H  0.76229036  0.29808431  0.20917248     0.20500
H3950       H  0.79981029  0.27608275  0.22134059     0.18900
H3951       H  0.78301738  0.26284262  0.23540627     0.18900
H3952       H  0.77938132  0.31096612  0.19433628     0.14700
C3953       C  0.77535708  0.21303665  0.28782331     0.30200
C3954       C  0.76504606  0.22008783  0.28635022    -0.36200
C3955       C  0.76300157  0.22446489  0.27484148     0.16200
C3956       C  0.77062558  0.22207162  0.26543976     0.22000
C3957       C  0.78072255  0.21466983  0.26682957    -0.34300
C3958       C  0.78278708  0.21032906  0.27836651     0.16100
O3959       O  0.77964132  0.20918051  0.29804171    -0.26300
C3960       C  0.78992530  0.20386493  0.29514186     0.05900
C3961       C  0.79231235  0.20420476  0.28297909    -0.31200
O3962       O  0.76814249  0.22861399  0.25599777    -0.23000
C3963       C  0.75871772  0.23512751  0.25933427    -0.03000
C3964       C  0.75499961  0.23280328  0.27090667    -0.17400
H3965       H  0.75943560  0.22260510  0.29381141     0.20500
H3966       H  0.78696938  0.21308604  0.25961471     0.18900
H3967       H  0.80018211  0.20104285  0.27828615     0.18900
H3968       H  0.74828975  0.23753198  0.27605995     0.14700
C3969       C  0.70533063  0.21754906  0.21549089     0.30200
C3970       C  0.71141966  0.21857819  0.22642710    -0.36200
C3971       C  0.71683981  0.22972466  0.22869185     0.16200
C3972       C  0.71627575  0.23914935  0.22072709     0.22000
C3973       C  0.70997614  0.23822041  0.21000677    -0.34300
C3974       C  0.70466640  0.22712697  0.20773776     0.16100
O3975       O  0.70051562  0.20771715  0.21097988    -0.26300
C3976       C  0.69684267  0.21110361  0.20018028     0.05900
C3977       C  0.69909864  0.22312673  0.19780915    -0.31200
O3978       O  0.72315156  0.24818476  0.22381427    -0.23000
C3979       C  0.72810213  0.24465455  0.23399555    -0.03000
C3980       C  0.72442259  0.23328315  0.23756038    -0.17400
H3981       H  0.71237370  0.21106450  0.23245805     0.20500
H3982       H  0.70980499  0.24544095  0.20356064     0.18900
H3983       H  0.69724886  0.22817360  0.18977755     0.18900
H3984       H  0.72770176  0.22801158  0.24498200     0.14700
C3985       C  0.73126226  0.28311322  0.27792424     0.30200
C3986       C  0.73010238  0.29424448  0.28346366    -0.36200
C3987       C  0.71953462  0.29604989  0.28990603     0.16200
C3988       C  0.71073809  0.28743924  0.29108118     0.22000
C3989       C  0.71200235  0.27614762  0.28567057    -0.34300
C3990       C  0.72256426  0.27438684  0.27901303     0.16100
O3991       O  0.73978782  0.28016892  0.27040501    -0.26300
C3992       C  0.73664005  0.26938161  0.26656049     0.05900
C3993       C  0.72603158  0.26523433  0.27169867    -0.31200
O3994       O  0.70123639  0.29145851  0.29690785    -0.23000
C3995       C  0.70401205  0.30280137  0.29930876    -0.03000
C3996       C  0.71531488  0.30607857  0.29521999    -0.17400
H3997       H  0.73670688  0.30125165  0.28230047     0.20500
H3998       H  0.70501537  0.26944040  0.28614986     0.18900
H3999       H  0.72114795  0.25711500  0.26970500     0.18900
H4000       H  0.71969074  0.31470364  0.29581824     0.14700
C4001       C  0.22181698  0.29058707  0.22791621     0.30200
C4002       C  0.21434568  0.30040642  0.22549041    -0.36200
C4003       C  0.20806436  0.29999267  0.21469188     0.16200
C4004       C  0.20915789  0.29062689  0.20676258     0.22000
C4005       C  0.21640512  0.28065690  0.20933233    -0.34300
C4006       C  0.22260762  0.28101613  0.22019309     0.16100
O4007       O  0.22884764  0.28934600  0.23726088    -0.26300
C4008       C  0.23409448  0.27877835  0.23558620     0.05900
C4009       C  0.23049878  0.27312534  0.22516983    -0.31200
O4010       O  0.20321651  0.29255393  0.19678536    -0.23000
C4011       C  0.19811473  0.30320928  0.19842625    -0.03000
C4012       C  0.20074472  0.30821465  0.20944911    -0.17400
H4013       H  0.21368880  0.30796261  0.23147664     0.20500
H4014       H  0.21736434  0.27327832  0.20317110     0.18900
H4015       H  0.23345726  0.26459082  0.22167781     0.18900
H4016       H  0.19820527  0.31692228  0.21283916     0.14700
C4017       C  0.27906721  0.22267915  0.21394728     0.30200
C4018       C  0.26831080  0.22929751  0.21485361    -0.36200
C4019       C  0.26643396  0.23532750  0.22571936     0.16200
C4020       C  0.27461803  0.23483517  0.23494496     0.22000
C4021       C  0.28517273  0.22813532  0.23411275    -0.34300
C4022       C  0.28703412  0.22220716  0.22334332     0.16100
O4023       O  0.28316312  0.21695752  0.20444174    -0.26300
C4024       C  0.29389759  0.21290946  0.20789049     0.05900
C4025       C  0.29664924  0.21585974  0.21959251    -0.31200
O4026       O  0.27179016  0.24191432  0.24383086    -0.23000
C4027       C  0.26156462  0.24700107  0.24043989    -0.03000
C4028       C  0.25768606  0.24318375  0.22926981    -0.17400
H4029       H  0.26207910  0.23003999  0.20749366     0.20500
H4030       H  0.29174212  0.22796225  0.24121705     0.18900
H4031       H  0.30472919  0.21387348  0.22458010     0.18900
H4032       H  0.25005142  0.24635829  0.22419789     0.14700
C4033       C  0.21822248  0.24702684  0.27959225     0.30200
C4034       C  0.21246977  0.24541511  0.29052721    -0.36200
C4035       C  0.20702452  0.23430202  0.29226893     0.16200
C4036       C  0.20699660  0.22537549  0.28378915     0.22000
C4037       C  0.21252179  0.22711995  0.27264954    -0.34300
C4038       C  0.21816166  0.23825375  0.27094389     0.16100
O4039       O  0.22522347  0.25606634  0.27687496    -0.26300
C4040       C  0.22969823  0.25318656  0.26630066     0.05900
C4041       C  0.22551952  0.24225856  0.26205136    -0.31200
O4042       O  0.20229331  0.21529592  0.28785375    -0.23000
C4043       C  0.19942968  0.21786074  0.29908650    -0.03000
C4044       C  0.20207160  0.22959354  0.30222591    -0.17400
H4045       H  0.21288265  0.25208512  0.29749626     0.20500
H4046       H  0.21299260  0.22006990  0.26606856     0.18900
H4047       H  0.22831124  0.23750777  0.25412779     0.18900
H4048       H  0.20092676  0.23393299  0.31076138     0.14700
C4049       C  0.27206310  0.28923514  0.28367730     0.30200
C4050       C  0.27443070  0.29303360  0.29535204    -0.36200
C4051       C  0.28578596  0.29807753  0.29727853     0.16200
C4052       C  0.29426037  0.29910655  0.28835915     0.22000
C4053       C  0.29178629  0.29559213  0.27664836    -0.34300
C4054       C  0.28037731  0.29075086  0.27468868     0.16100
O4055       O  0.26241222  0.28349150  0.28005358    -0.26300
C4056       C  0.26450309  0.28145053  0.26855607     0.05900
C4057       C  0.27546456  0.28598474  0.26469443    -0.31200
O4058       O  0.30447964  0.30351526  0.29221769    -0.23000
C4059       C  0.30248221  0.30552577  0.30371059    -0.03000
C4060       C  0.29098552  0.30240620  0.30737802    -0.17400
H4061       H  0.26798246  0.29189302  0.30247514     0.20500
H4062       H  0.29838148  0.29636767  0.26960837     0.18900
H4063       H  0.27953014  0.28515616  0.25597706     0.18900
H4064       H  0.28714421  0.30301517  0.31621251     0.14700
loop_ 
_geom_bond_atom_site_label_1 
_geom_bond_atom_site_label_2 
_geom_bond_distance 
_geom_bond_site_symmetry_2 
_ccdc_geom_bond_type 
C1            C2   1.532       .  S
C1            C7   1.529       .  S
C1            C5   1.531       .  S
C1         C4056   1.505       .  S
C2            H9   1.087       .  S
C2            C3   1.363       .  D
C3            C4   1.538       .  S
C3         C4027   1.474       .  S
C4            C8   1.542       .  S
C4            C6   1.541       .  S
C4           H10   1.110       .  S
C5           H11   1.086       .  S
C5            C6   1.367       .  D
C6         C4008   1.470       .  S
C7           H12   1.086       .  S
C7            C8   1.365       .  D
C8         C4040   1.471       .  S
C13          C14   1.532       .  S
C13          C19   1.536       .  S
C13          C17   1.527       .  S
C13        C3944   1.508       .  S
C14          H21   1.086       .  S
C14          C15   1.367       .  D
C15          C16   1.540       .  S
C15        C3979   1.473       .  S
C16          C20   1.538       .  S
C16          C18   1.543       .  S
C16          H22   1.110       .  S
C17          H23   1.087       .  S
C17          C18   1.365       .  D
C18        C3992   1.476       .  S
C19          H24   1.083       .  S
C19          C20   1.363       .  D
C20        C3963   1.468       .  S
C25          C26   1.525       .  S
C25          C31   1.531       .  S
C25          C29   1.534       .  S
C25        C3928   1.503       .  S
C26          H33   1.087       .  S
C26          C27   1.362       .  D
C27          C28   1.544       .  S
C27        C3896   1.471       .  S
C28          C32   1.539       .  S
C28          C30   1.546       .  S
C28          H34   1.110       .  S
C29          H35   1.086       .  S
C29          C30   1.370       .  D
C30        C3880   1.472       .  S
C31          H36   1.086       .  S
C31          C32   1.364       .  D
C32        C3912   1.484       .  S
C37          C38   1.527       .  S
C37          C43   1.533       .  S
C37          C41   1.536       .  S
C37        C3867   1.504       .  S
C38          H45   1.086       .  S
C38          C39   1.367       .  D
C39          C40   1.545       .  S
C39        C3835   1.477       .  S
C40          C44   1.543       .  S
C40          C42   1.541       .  S
C40          H46   1.110       .  S
C41          H47   1.086       .  S
C41          C42   1.364       .  D
C42        C3848   1.476       .  S
C43          H48   1.087       .  S
C43          C44   1.363       .  D
C44        C3816   1.476       .  S
C49          C50   1.537       .  S
C49          C55   1.534       .  S
C49          C53   1.537       .  S
C49        C3768   1.504       .  S
C50          H57   1.086       .  S
C50          C51   1.364       .  D
C51          C52   1.540       .  S
C51        C3784   1.475       .  S
C52          C56   1.540       .  S
C52          C54   1.539       .  S
C52          H58   1.109       .  S
C53          H59   1.086       .  S
C53          C54   1.366       .  D
C54        C3755   1.477       .  S
C55          H60   1.086       .  S
C55          C56   1.363       .  D
C56        C3803   1.475       .  S
C61          C62   1.528       .  S
C61          C67   1.525       .  S
C61          C65   1.534       .  S
C61        C3736   1.511       .  S
C62          H69   1.084       .  S
C62          C63   1.371       .  D
C63          C64   1.546       .  S
C63        C3723   1.488       .  S
C64          C68   1.545       .  S
C64          C66   1.543       .  S
C64          H70   1.111       .  S
C65          H71   1.084       .  S
C65          C66   1.363       .  D
C66        C3707   1.472       .  S
C67          H72   1.087       .  S
C67          C68   1.366       .  D
C68        C3688   1.475       .  S
C73          C74   1.530       .  S
C73          C79   1.532       .  S
C73          C77   1.534       .  S
C73        C3672   1.507       .  S
C74          H81   1.086       .  S
C74          C75   1.368       .  D
C75          C76   1.543       .  S
C75        C3624   1.474       .  S
C76          C80   1.536       .  S
C76          C78   1.542       .  S
C76          H82   1.111       .  S
C77          H83   1.086       .  S
C77          C78   1.366       .  D
C78        C3643   1.476       .  S
C79          H84   1.086       .  S
C79          C80   1.364       .  D
C80        C3659   1.474       .  S
C85          C86   1.534       .  S
C85          C91   1.526       .  S
C85          C89   1.528       .  S
C85        C3608   1.505       .  S
C86          H93   1.086       .  S
C86          C87   1.372       .  D
C87          C88   1.549       .  S
C87        C3560   1.477       .  S
C88          C92   1.544       .  S
C88          C90   1.542       .  S
C88          H94   1.109       .  S
C89          H95   1.087       .  S
C89          C90   1.361       .  D
C90        C3592   1.480       .  S
C91          H96   1.087       .  S
C91          C92   1.363       .  D
C92        C3576   1.473       .  S
N97          N98   1.322       .  A
N97         C101   1.351       .  A
N97        Cu105   2.092       .  S
N98          C99   1.343       .  A
N98        Cu104   2.071       .  S
C99         C100   1.382       .  A
C99         H102   1.082       .  S
C100        C101   1.387       .  A
C100       C3512   1.475       .  S
C101        H103   1.082       .  S
Cu104       N107   2.071       .  S
Cu105       N115   2.094       .  S
Cu106       N108   2.089       .  S
Cu106       N114   2.091       .  S
N107        N108   1.322       .  A
N107        C111   1.342       .  A
N108        C109   1.352       .  A
C109        C110   1.387       .  A
C109        H112   1.082       .  S
C110        C111   1.380       .  A
C110       C3528   1.472       .  S
C111        H113   1.082       .  S
N114        N115   1.325       .  A
N114        C118   1.348       .  A
N115        C116   1.349       .  A
C116        C117   1.387       .  A
C116        H119   1.082       .  S
C117        C118   1.384       .  A
C117       C3544   1.481       .  S
C118        H120   1.082       .  S
N121        N122   1.322       .  A
N121        C125   1.352       .  A
N121       Cu129   2.103       .  S
N122        C123   1.343       .  A
N122       Cu128   2.061       .  S
C123        C124   1.382       .  A
C123        H126   1.082       .  S
C124        C125   1.390       .  A
C124       C3496   1.480       .  S
C125        H127   1.082       .  S
Cu128       N131   2.059       .  S
Cu129       N139   2.105       .  S
Cu130       N132   2.087       .  S
Cu130       N138   2.088       .  S
N131        N132   1.321       .  A
N131        C135   1.341       .  A
N132        C133   1.350       .  A
C133        C134   1.388       .  A
C133        H136   1.082       .  S
C134        C135   1.381       .  A
C134       C3483   1.474       .  S
C135        H137   1.082       .  S
N138        N139   1.325       .  A
N138        C142   1.348       .  A
N139        C140   1.350       .  A
C140        C141   1.389       .  A
C140        H143   1.082       .  S
C141        C142   1.384       .  A
C141       C3547   1.483       .  S
C142        H144   1.082       .  S
N145        N146   1.321       .  A
N145        C149   1.353       .  A
N145       Cu153   2.095       .  S
N146        C147   1.340       .  A
N146       Cu152   2.061       .  S
C147        C148   1.381       .  A
C147        H150   1.082       .  S
C148        C149   1.390       .  A
C148       C3432   1.478       .  S
C149        H151   1.082       .  S
Cu152       N155   2.061       .  S
Cu153       N163   2.097       .  S
Cu154       N156   2.100       .  S
Cu154       N162   2.103       .  S
N155        N156   1.321       .  A
N155        C159   1.341       .  A
N156        C157   1.354       .  A
C157        C158   1.392       .  A
C157        H160   1.082       .  S
C158        C159   1.379       .  A
C158       C3451   1.477       .  S
C159        H161   1.082       .  S
N162        N163   1.327       .  A
N162        C166   1.348       .  A
N163        C164   1.349       .  A
C164        C165   1.385       .  A
C164        H167   1.082       .  S
C165        C166   1.386       .  A
C165       C3464   1.482       .  S
C166        H168   1.082       .  S
N169        N170   1.322       .  A
N169        C173   1.354       .  A
N169       Cu177   2.102       .  S
N170        C171   1.341       .  A
N170       Cu176   2.066       .  S
C171        C172   1.380       .  A
C171        H174   1.082       .  S
C172        C173   1.391       .  A
C172       C3416   1.479       .  S
C173        H175   1.082       .  S
Cu176       N179   2.066       .  S
Cu177       N187   2.104       .  S
Cu178       N180   2.084       .  S
Cu178       N186   2.087       .  S
N179        N180   1.321       .  A
N179        C183   1.342       .  A
N180        C181   1.350       .  A
C181        C182   1.387       .  A
C181        H184   1.082       .  S
C182        C183   1.382       .  A
C182       C3403   1.474       .  S
C183        H185   1.082       .  S
N186        N187   1.326       .  A
N186        C190   1.347       .  A
N187        C188   1.350       .  A
C188        C189   1.387       .  A
C188        H191   1.082       .  S
C189        C190   1.384       .  A
C189       C3467   1.481       .  S
C190        H192   1.082       .  S
N193        N194   1.322       .  A
N193        C197   1.354       .  A
N193       Cu201   2.103       .  S
N194        C195   1.342       .  A
N194       Cu200   2.065       .  S
C195        C196   1.379       .  A
C195        H198   1.082       .  S
C196        C197   1.391       .  A
C196       C3352   1.477       .  S
C197        H199   1.082       .  S
Cu200       N203   2.064       .  S
Cu201       N211   2.106       .  S
Cu202       N204   2.100       .  S
Cu202       N210   2.103       .  S
N203        N204   1.322       .  A
N203        C207   1.341       .  A
N204        C205   1.353       .  A
C205        C206   1.391       .  A
C205        H208   1.082       .  S
C206        C207   1.381       .  A
C206       C3368   1.479       .  S
C207        H209   1.082       .  S
N210        N211   1.326       .  A
N210        C214   1.350       .  A
N211        C212   1.350       .  A
C212        C213   1.387       .  A
C212        H215   1.082       .  S
C213        C214   1.388       .  A
C213       C3384   1.487       .  S
C214        H216   1.082       .  S
N217        N218   1.322       .  A
N217        C221   1.351       .  A
N217       Cu225   2.098       .  S
N218        C219   1.344       .  A
N218       Cu224   2.067       .  S
C219        C220   1.380       .  A
C219        H222   1.082       .  S
C220        C221   1.390       .  A
C220       C3336   1.476       .  S
C221        H223   1.082       .  S
Cu224       N227   2.068       .  S
Cu225       N235   2.099       .  S
Cu226       N228   2.093       .  S
Cu226       N234   2.096       .  S
N227        N228   1.322       .  A
N227        C231   1.342       .  A
N228        C229   1.352       .  A
C229        C230   1.388       .  A
C229        H232   1.082       .  S
C230        C231   1.380       .  A
C230       C3320   1.474       .  S
C231        H233   1.082       .  S
N234        N235   1.325       .  A
N234        C238   1.349       .  A
N235        C236   1.350       .  A
C236        C237   1.387       .  A
C236        H239   1.082       .  S
C237        C238   1.388       .  A
C237       C3387   1.486       .  S
C238        H240   1.082       .  S
N241        N242   1.321       .  A
N241        C245   1.356       .  A
N241       Cu249   2.111       .  S
N242        C243   1.341       .  A
N242       Cu248   2.063       .  S
C243        C244   1.382       .  A
C243        H246   1.081       .  S
C244        C245   1.394       .  A
C244       C3291   1.486       .  S
C245        H247   1.082       .  S
Cu248       N251   2.062       .  S
Cu249       N259   2.114       .  S
Cu250       N252   2.091       .  S
Cu250       N258   2.094       .  S
N251        N252   1.321       .  A
N251        C255   1.341       .  A
N252        C253   1.353       .  A
C253        C254   1.390       .  A
C253        H256   1.082       .  S
C254        C255   1.379       .  A
C254       C3275   1.475       .  S
C255        H257   1.082       .  S
N258        N259   1.326       .  A
N258        C262   1.347       .  A
N259        C260   1.352       .  A
C260        C261   1.390       .  A
C260        H263   1.082       .  S
C261        C262   1.383       .  A
C261       C3307   1.485       .  S
C262        H264   1.082       .  S
N265        N266   1.321       .  A
N265        C269   1.354       .  A
N265       Cu273   2.100       .  S
N266        C267   1.342       .  A
N266       Cu272   2.065       .  S
C267        C268   1.383       .  A
C267        H270   1.082       .  S
C268        C269   1.392       .  A
C268       C3256   1.482       .  S
C269        H271   1.082       .  S
Cu272       N275   2.064       .  S
Cu273       N283   2.103       .  S
Cu274       N276   2.091       .  S
Cu274       N282   2.095       .  S
N275        N276   1.321       .  A
N275        C279   1.339       .  A
N276        C277   1.354       .  A
C277        C278   1.390       .  A
C277        H280   1.082       .  S
C278        C279   1.378       .  A
C278       C3243   1.473       .  S
C279        H281   1.082       .  S
N282        N283   1.326       .  A
N282        C286   1.348       .  A
N283        C284   1.350       .  A
C284        C285   1.386       .  A
C284        H287   1.082       .  S
C285        C286   1.386       .  A
C285       C3304   1.484       .  S
C286        H288   1.082       .  S
N289        N290   1.321       .  A
N289        C293   1.355       .  A
N289       Cu297   2.102       .  S
N290        C291   1.341       .  A
N290       Cu296   2.063       .  S
C291        C292   1.379       .  A
C291        H294   1.082       .  S
C292        C293   1.392       .  A
C292       C3211   1.477       .  S
C293        H295   1.082       .  S
Cu296       N299   2.063       .  S
Cu297       N307   2.105       .  S
Cu298       N300   2.103       .  S
Cu298       N306   2.106       .  S
N299        N300   1.322       .  A
N299        C303   1.341       .  A
N300        C301   1.354       .  A
C301        C302   1.392       .  A
C301        H304   1.082       .  S
C302        C303   1.378       .  A
C302       C3192   1.477       .  S
C303        H305   1.082       .  S
N306        N307   1.327       .  A
N306        C310   1.352       .  A
N307        C308   1.348       .  A
C308        C309   1.385       .  A
C308        H311   1.082       .  S
C309        C310   1.388       .  A
C309       C3224   1.486       .  S
C310        H312   1.082       .  S
N313        N314   1.322       .  A
N313        C317   1.354       .  A
N313       Cu321   2.103       .  S
N314        C315   1.342       .  A
N314       Cu320   2.069       .  S
C315        C316   1.383       .  A
C315        H318   1.082       .  S
C316        C317   1.391       .  A
C316       C3160   1.483       .  S
C317        H319   1.082       .  S
Cu320       N323   2.067       .  S
Cu321       N331   2.105       .  S
Cu322       N324   2.089       .  S
Cu322       N330   2.092       .  S
N323        N324   1.321       .  A
N323        C327   1.343       .  A
N324        C325   1.350       .  A
C325        C326   1.387       .  A
C325        H328   1.082       .  S
C326        C327   1.380       .  A
C326       C3176   1.470       .  S
C327        H329   1.082       .  S
N330        N331   1.326       .  A
N330        C334   1.347       .  A
N331        C332   1.352       .  A
C332        C333   1.388       .  A
C332        H335   1.082       .  S
C333        C334   1.386       .  A
C333       C3227   1.485       .  S
C334        H336   1.082       .  S
N337        N338   1.321       .  A
N337        C341   1.352       .  A
N337       Cu345   2.095       .  S
N338        C339   1.340       .  A
N338       Cu344   2.060       .  S
C339        C340   1.378       .  A
C339        H342   1.082       .  S
C340        C341   1.391       .  A
C340       C3128   1.475       .  S
C341        H343   1.082       .  S
Cu344       N347   2.060       .  S
Cu345       N355   2.097       .  S
Cu346       N348   2.094       .  S
Cu346       N354   2.097       .  S
N347        N348   1.321       .  A
N347        C351   1.341       .  A
N348        C349   1.352       .  A
C349        C350   1.390       .  A
C349        H352   1.082       .  S
C350        C351   1.379       .  A
C350       C3112   1.473       .  S
C351        H353   1.082       .  S
N354        N355   1.326       .  A
N354        C358   1.348       .  A
N355        C356   1.349       .  A
C356        C357   1.385       .  A
C356        H359   1.082       .  S
C357        C358   1.386       .  A
C357       C3144   1.482       .  S
C358        H360   1.082       .  S
N361        N362   1.321       .  A
N361        C365   1.350       .  A
N361       Cu369   2.085       .  S
N362        C363   1.342       .  A
N362       Cu368   2.066       .  S
C363        C364   1.381       .  A
C363        H366   1.082       .  S
C364        C365   1.386       .  A
C364       C3096   1.471       .  S
C365        H367   1.082       .  S
Cu368       N371   2.067       .  S
Cu369       N379   2.088       .  S
Cu370       N372   2.099       .  S
Cu370       N378   2.101       .  S
N371        N372   1.322       .  A
N371        C375   1.341       .  A
N372        C373   1.353       .  A
C373        C374   1.390       .  A
C373        H376   1.082       .  S
C374        C375   1.381       .  A
C374       C3080   1.478       .  S
C375        H377   1.082       .  S
N378        N379   1.326       .  A
N378        C382   1.349       .  A
N379        C380   1.347       .  A
C380        C381   1.384       .  A
C380        H383   1.082       .  S
C381        C382   1.386       .  A
C381       C3147   1.481       .  S
C382        H384   1.082       .  S
N385        N386   1.321       .  A
N385        C389   1.354       .  A
N385       Cu393   2.098       .  S
N386        C387   1.338       .  A
N386       Cu392   2.057       .  S
C387        C388   1.380       .  A
C387        H390   1.082       .  S
C388        C389   1.391       .  A
C388       C3048   1.478       .  S
C389        H391   1.082       .  S
Cu392       N395   2.057       .  S
Cu393       N403   2.101       .  S
Cu394       N396   2.084       .  S
Cu394       N402   2.088       .  S
N395        N396   1.320       .  A
N395        C399   1.340       .  A
N396        C397   1.352       .  A
C397        C398   1.388       .  A
C397        H400   1.082       .  S
C398        C399   1.378       .  A
C398       C3035   1.470       .  S
C399        H401   1.082       .  S
N402        N403   1.326       .  A
N402        C406   1.344       .  A
N403        C404   1.351       .  A
C404        C405   1.388       .  A
C404        H407   1.082       .  S
C405        C406   1.381       .  A
C405       C3067   1.478       .  S
C406        H408   1.082       .  S
N409        N410   1.320       .  A
N409        C413   1.352       .  A
N409       Cu417   2.084       .  S
N410        C411   1.339       .  A
N410       Cu416   2.060       .  S
C411        C412   1.381       .  A
C411        H414   1.082       .  S
C412        C413   1.389       .  A
C412       C3019   1.476       .  S
C413        H415   1.082       .  S
Cu416       N419   2.060       .  S
Cu417       N427   2.087       .  S
Cu418       N420   2.104       .  S
Cu418       N426   2.107       .  S
N419        N420   1.321       .  A
N419        C423   1.341       .  A
N420        C421   1.355       .  A
C421        C422   1.393       .  A
C421        H424   1.082       .  S
C422        C423   1.378       .  A
C422       C3000   1.478       .  S
C423        H425   1.082       .  S
N426        N427   1.326       .  A
N426        C430   1.350       .  A
N427        C428   1.347       .  A
C428        C429   1.382       .  A
C428        H431   1.082       .  S
C429        C430   1.388       .  A
C429       C3064   1.480       .  S
C430        H432   1.082       .  S
C433        C434   1.538       .  S
C433        C439   1.537       .  S
C433        C437   1.533       .  S
C433       C3099   1.510       .  S
C434        H441   1.084       .  S
C434        C435   1.369       .  D
C435        C436   1.546       .  S
C435       C3016   1.485       .  S
C436        C440   1.548       .  S
C436        C438   1.535       .  S
C436        H442   1.108       .  S
C437        H443   1.085       .  S
C437        C438   1.363       .  D
C438       C3675   1.481       .  S
C439        H444   1.086       .  S
C439        C440   1.369       .  D
C440       C2984   1.488       .  S
N445        N446   1.321       .  A
N445        C449   1.351       .  A
N445       Cu453   2.096       .  S
N446        C447   1.345       .  A
N446       Cu452   2.068       .  S
C447        C448   1.382       .  A
C447        H450   1.082       .  S
C448        C449   1.390       .  A
C448       C2939   1.478       .  S
C449        H451   1.081       .  S
Cu452       N455   2.067       .  S
Cu453       N463   2.099       .  S
Cu454       N456   2.122       .  S
Cu454       N462   2.124       .  S
N455        N456   1.323       .  A
N455        C459   1.340       .  A
N456        C457   1.359       .  A
C457        C458   1.397       .  A
C457        H460   1.082       .  S
C458        C459   1.378       .  A
C458       C2952   1.485       .  S
C459        H461   1.082       .  S
N462        N463   1.327       .  A
N462        C466   1.354       .  A
N463        C464   1.348       .  A
C464        C465   1.387       .  A
C464        H467   1.082       .  S
C465        C466   1.391       .  A
C465       C2968   1.492       .  S
C466        H468   1.082       .  S
N469        N470   1.320       .  A
N469        C473   1.357       .  A
N469       Cu477   2.111       .  S
N470        C471   1.339       .  A
N470       Cu476   2.054       .  S
C471        C472   1.378       .  A
C471        H474   1.082       .  S
C472        C473   1.395       .  A
C472       C2904   1.480       .  S
C473        H475   1.082       .  S
Cu476       N479   2.053       .  S
Cu477       N487   2.115       .  S
Cu478       N480   2.109       .  S
Cu478       N486   2.113       .  S
N479        N480   1.320       .  A
N479        C483   1.339       .  A
N480        C481   1.356       .  A
C481        C482   1.394       .  A
C481        H484   1.082       .  S
C482        C483   1.378       .  A
C482       C2923   1.479       .  S
C483        H485   1.082       .  S
N486        N487   1.328       .  A
N486        C490   1.351       .  A
N487        C488   1.352       .  A
C488        C489   1.389       .  A
C488        H491   1.082       .  S
C489        C490   1.387       .  A
C489       C2971   1.491       .  S
C490        H492   1.082       .  S
N493        N494   1.321       .  A
N493        C497   1.354       .  A
N493       Cu501   2.109       .  S
N494        C495   1.342       .  A
N494       Cu500   2.057       .  S
C495        C496   1.382       .  A
C495        H498   1.082       .  S
C496        C497   1.393       .  A
C496       C2856   1.483       .  S
C497        H499   1.082       .  S
Cu500       N503   2.059       .  S
Cu501       N511   2.111       .  S
Cu502       N504   2.092       .  S
Cu502       N510   2.094       .  S
N503        N504   1.322       .  A
N503        C507   1.339       .  A
N504        C505   1.352       .  A
C505        C506   1.389       .  A
C505        H508   1.082       .  S
C506        C507   1.378       .  A
C506       C2875   1.472       .  S
C507        H509   1.082       .  S
N510        N511   1.326       .  A
N510        C514   1.351       .  A
N511        C512   1.349       .  A
C512        C513   1.389       .  A
C512        H515   1.082       .  S
C513        C514   1.386       .  A
C513       C2891   1.487       .  S
C514        H516   1.082       .  S
N517        N518   1.321       .  A
N517        C521   1.355       .  A
N517       Cu525   2.106       .  S
N518        C519   1.341       .  A
N518       Cu524   2.056       .  S
C519        C520   1.378       .  A
C519        H522   1.082       .  S
C520        C521   1.394       .  A
C520       C2827   1.480       .  S
C521        H523   1.082       .  S
Cu524       N527   2.054       .  S
Cu525       N535   2.109       .  S
Cu526       N528   2.099       .  S
Cu526       N534   2.103       .  S
N527        N528   1.320       .  A
N527        C531   1.340       .  A
N528        C529   1.353       .  A
C529        C530   1.393       .  A
C529        H532   1.082       .  S
C530        C531   1.378       .  A
C530       C2840   1.476       .  S
C531        H533   1.082       .  S
N534        N535   1.327       .  A
N534        C538   1.349       .  A
N535        C536   1.352       .  A
C536        C537   1.389       .  A
C536        H539   1.082       .  S
C537        C538   1.386       .  A
C537       C2888   1.487       .  S
C538        H540   1.082       .  S
N541        N542   1.321       .  A
N541        C545   1.353       .  A
N541       Cu549   2.098       .  S
N542        C543   1.341       .  A
N542       Cu548   2.064       .  S
C543        C544   1.382       .  A
C543        H546   1.082       .  S
C544        C545   1.390       .  A
C544       C2792   1.480       .  S
C545        H547   1.082       .  S
Cu548       N551   2.063       .  S
Cu549       N559   2.100       .  S
Cu550       N552   2.094       .  S
Cu550       N558   2.097       .  S
N551        N552   1.322       .  A
N551        C555   1.341       .  A
N552        C553   1.352       .  A
C553        C554   1.389       .  A
C553        H556   1.082       .  S
C554        C555   1.379       .  A
C554       C2779   1.473       .  S
C555        H557   1.082       .  S
N558        N559   1.325       .  A
N558        C562   1.349       .  A
N559        C560   1.350       .  A
C560        C561   1.388       .  A
C560        H563   1.082       .  S
C561        C562   1.385       .  A
C561       C2808   1.484       .  S
C562        H564   1.082       .  S
N565        N566   1.322       .  A
N565        C569   1.351       .  A
N565       Cu573   2.096       .  S
N566        C567   1.343       .  A
N566       Cu572   2.068       .  S
C567        C568   1.382       .  A
C567        H570   1.082       .  S
C568        C569   1.388       .  A
C568       C2760   1.477       .  S
C569        H571   1.082       .  S
Cu572       N575   2.068       .  S
Cu573       N583   2.098       .  S
Cu574       N576   2.095       .  S
Cu574       N582   2.097       .  S
N575        N576   1.321       .  A
N575        C579   1.342       .  A
N576        C577   1.353       .  A
C577        C578   1.389       .  A
C577        H580   1.082       .  S
C578        C579   1.382       .  A
C578       C2747   1.477       .  S
C579        H581   1.082       .  S
N582        N583   1.325       .  A
N582        C586   1.348       .  A
N583        C584   1.350       .  A
C584        C585   1.387       .  A
C584        H587   1.082       .  S
C585        C586   1.386       .  A
C585       C2811   1.484       .  S
C586        H588   1.082       .  S
N589        N590   1.320       .  A
N589        C593   1.353       .  A
N589       Cu597   2.097       .  S
N590        C591   1.340       .  A
N590       Cu596   2.054       .  S
C591        C592   1.377       .  A
C591        H594   1.082       .  S
C592        C593   1.391       .  A
C592       C2712   1.474       .  S
C593        H595   1.082       .  S
Cu596       N599   2.055       .  S
Cu597       N607   2.101       .  S
Cu598       N600   2.099       .  S
Cu598       N606   2.102       .  S
N599        N600   1.320       .  A
N599        C603   1.340       .  A
N600        C601   1.354       .  A
C601        C602   1.392       .  A
C601        H604   1.082       .  S
C602        C603   1.377       .  A
C602       C2987   1.474       .  S
C603        H605   1.082       .  S
N606        N607   1.328       .  A
N606        C610   1.348       .  A
N607        C608   1.349       .  A
C608        C609   1.385       .  A
C608        H611   1.082       .  S
C609        C610   1.384       .  A
C609       C2728   1.480       .  S
C610        H612   1.082       .  S
N613        N614   1.322       .  A
N613        C617   1.351       .  A
N613       Cu621   2.093       .  S
N614        C615   1.343       .  A
N614       Cu620   2.065       .  S
C615        C616   1.381       .  A
C615        H618   1.082       .  S
C616        C617   1.389       .  A
C616       C2683   1.477       .  S
C617        H619   1.082       .  S
Cu620       N623   2.066       .  S
Cu621       N631   2.095       .  S
Cu622       N624   2.091       .  S
Cu622       N630   2.093       .  S
N623        N624   1.321       .  A
N623        C627   1.341       .  A
N624        C625   1.352       .  A
C625        C626   1.389       .  A
C625        H628   1.082       .  S
C626        C627   1.382       .  A
C626       C2696   1.477       .  S
C627        H629   1.082       .  S
N630        N631   1.325       .  A
N630        C634   1.347       .  A
N631        C632   1.349       .  A
C632        C633   1.385       .  A
C632        H635   1.082       .  S
C633        C634   1.385       .  A
C633       C2731   1.481       .  S
C634        H636   1.082       .  S
N637        N638   1.321       .  A
N637        C641   1.348       .  A
N637       Cu645   2.074       .  S
N638        C639   1.344       .  A
N638       Cu644   2.072       .  S
C639        C640   1.382       .  A
C639        H642   1.082       .  S
C640        C641   1.384       .  A
C640       C2651   1.471       .  S
C641        H643   1.082       .  S
Cu644       N647   2.071       .  S
Cu645       N655   2.076       .  S
Cu646       N648   2.106       .  S
Cu646       N654   2.106       .  S
N647        N648   1.323       .  A
N647        C651   1.342       .  A
N648        C649   1.354       .  A
C649        C650   1.391       .  A
C649        H652   1.082       .  S
C650        C651   1.382       .  A
C650       C2632   1.482       .  S
C651        H653   1.082       .  S
N654        N655   1.325       .  A
N654        C658   1.350       .  A
N655        C656   1.346       .  A
C656        C657   1.382       .  A
C656        H659   1.082       .  S
C657        C658   1.388       .  A
C657       C2667   1.480       .  S
C658        H660   1.082       .  S
N661        N662   1.324       .  A
N661        C665   1.354       .  A
N661       Cu669   2.111       .  S
N662        C663   1.343       .  A
N662       Cu668   2.072       .  S
C663        C664   1.381       .  A
C663        H666   1.082       .  S
C664        C665   1.392       .  A
C664       C2616   1.483       .  S
C665        H667   1.082       .  S
Cu668       N671   2.071       .  S
Cu669       N679   2.112       .  S
Cu670       N672   2.069       .  S
Cu670       N678   2.071       .  S
N671        N672   1.320       .  A
N671        C675   1.343       .  A
N672        C673   1.348       .  A
C673        C674   1.383       .  A
C673        H676   1.082       .  S
C674        C675   1.382       .  A
C674       C2603   1.467       .  S
C675        H677   1.082       .  S
N678        N679   1.324       .  A
N678        C682   1.342       .  A
N679        C680   1.354       .  A
C680        C681   1.391       .  A
C680        H683   1.082       .  S
C681        C682   1.381       .  A
C681       C2664   1.482       .  S
C682        H684   1.081       .  S
N685        N686   1.320       .  A
N685        C689   1.354       .  A
N685       Cu693   2.104       .  S
N686        C687   1.342       .  A
N686       Cu692   2.062       .  S
C687        C688   1.382       .  A
C687        H690   1.082       .  S
C688        C689   1.393       .  A
C688       C2552   1.482       .  S
C689        H691   1.082       .  S
Cu692       N695   2.061       .  S
Cu693       N703   2.107       .  S
Cu694       N696   2.096       .  S
Cu694       N702   2.100       .  S
N695        N696   1.321       .  A
N695        C699   1.338       .  A
N696        C697   1.355       .  A
C697        C698   1.391       .  A
C697        H700   1.082       .  S
C698        C699   1.380       .  A
C698       C2568   1.478       .  S
C699        H701   1.082       .  S
N702        N703   1.327       .  A
N702        C706   1.349       .  A
N703        C704   1.350       .  A
C704        C705   1.388       .  A
C704        H707   1.082       .  S
C705        C706   1.385       .  A
C705       C2584   1.484       .  S
C706        H708   1.082       .  S
N709        N710   1.321       .  A
N709        C713   1.350       .  A
N709       Cu717   2.088       .  S
N710        C711   1.344       .  A
N710       Cu716   2.070       .  S
C711        C712   1.382       .  A
C711        H714   1.082       .  S
C712        C713   1.388       .  A
C712       C2536   1.475       .  S
C713        H715   1.082       .  S
Cu716       N719   2.070       .  S
Cu717       N727   2.090       .  S
Cu718       N720   2.100       .  S
Cu718       N726   2.102       .  S
N719        N720   1.323       .  A
N719        C723   1.342       .  A
N720        C721   1.353       .  A
C721        C722   1.390       .  A
C721        H724   1.082       .  S
C722        C723   1.379       .  A
C722       C2520   1.476       .  S
C723        H725   1.082       .  S
N726        N727   1.325       .  A
N726        C730   1.351       .  A
N727        C728   1.346       .  A
C728        C729   1.385       .  A
C728        H731   1.082       .  S
C729        C730   1.388       .  A
C729       C2587   1.484       .  S
C730        H732   1.082       .  S
N733        N734   1.322       .  A
N733        C737   1.353       .  A
N733       Cu741   2.095       .  S
N734        C735   1.339       .  A
N734       Cu740   2.061       .  S
C735        C736   1.379       .  A
C735        H738   1.082       .  S
C736        C737   1.390       .  A
C736       C2488   1.476       .  S
C737        H739   1.082       .  S
Cu740       N743   2.062       .  S
Cu741       N751   2.097       .  S
Cu742       N744   2.095       .  S
Cu742       N750   2.097       .  S
N743        N744   1.321       .  A
N743        C747   1.343       .  A
N744        C745   1.351       .  A
C745        C746   1.388       .  A
C745        H748   1.082       .  S
C746        C747   1.380       .  A
C746       C2475   1.474       .  S
C747        H749   1.082       .  S
N750        N751   1.326       .  A
N750        C754   1.348       .  A
N751        C752   1.349       .  A
C752        C753   1.385       .  A
C752        H755   1.082       .  S
C753        C754   1.386       .  A
C753       C2507   1.481       .  S
C754        H756   1.082       .  S
N757        N758   1.322       .  A
N757        C761   1.350       .  A
N757       Cu765   2.089       .  S
N758        C759   1.343       .  A
N758       Cu764   2.069       .  S
C759        C760   1.381       .  A
C759        H762   1.082       .  S
C760        C761   1.388       .  A
C760       C2440   1.475       .  S
C761        H763   1.082       .  S
Cu764       N767   2.069       .  S
Cu765       N775   2.090       .  S
Cu766       N768   2.086       .  S
Cu766       N774   2.088       .  S
N767        N768   1.322       .  A
N767        C771   1.342       .  A
N768        C769   1.351       .  A
C769        C770   1.388       .  A
C769        H772   1.082       .  S
C770        C771   1.380       .  A
C770       C2456   1.473       .  S
C771        H773   1.082       .  S
N774        N775   1.325       .  A
N774        C778   1.347       .  A
N775        C776   1.348       .  A
C776        C777   1.384       .  A
C776        H779   1.082       .  S
C777        C778   1.385       .  A
C777       C2504   1.479       .  S
C778        H780   1.082       .  S
C781        C782   1.544       .  S
C781        C787   1.541       .  S
C781        C785   1.536       .  S
C781       C2539   1.512       .  S
C782        H789   1.085       .  S
C782        C783   1.372       .  D
C783        C784   1.539       .  S
C783       C2699   1.485       .  S
C784        C788   1.544       .  S
C784        C786   1.527       .  S
C784        H790   1.107       .  S
C785        H791   1.087       .  S
C785        C786   1.358       .  D
C786       C3611   1.467       .  S
C787        H792   1.086       .  S
C787        C788   1.369       .  D
C788       C2459   1.487       .  S
N793        N794   1.320       .  A
N793        C797   1.354       .  A
N793       Cu801   2.102       .  S
N794        C795   1.341       .  A
N794       Cu800   2.056       .  S
C795        C796   1.377       .  A
C795        H798   1.082       .  S
C796        C797   1.392       .  A
C796       C2392   1.475       .  S
C797        H799   1.082       .  S
Cu800       N803   2.054       .  S
Cu801       N811   2.104       .  S
Cu802       N804   2.106       .  S
Cu802       N810   2.110       .  S
N803        N804   1.321       .  A
N803        C807   1.339       .  A
N804        C805   1.355       .  A
C805        C806   1.393       .  A
C805        H808   1.082       .  S
C806        C807   1.378       .  A
C806       C2408   1.477       .  S
C807        H809   1.082       .  S
N810        N811   1.328       .  A
N810        C814   1.350       .  A
N811        C812   1.349       .  A
C812        C813   1.385       .  A
C812        H815   1.082       .  S
C813        C814   1.388       .  A
C813       C2424   1.486       .  S
C814        H816   1.082       .  S
N817        N818   1.322       .  A
N817        C821   1.353       .  A
N817       Cu825   2.103       .  S
N818        C819   1.343       .  A
N818       Cu824   2.070       .  S
C819        C820   1.383       .  A
C819        H822   1.082       .  S
C820        C821   1.390       .  A
C820       C2363   1.482       .  S
C821        H823   1.082       .  S
Cu824       N827   2.068       .  S
Cu825       N835   2.105       .  S
Cu826       N828   2.094       .  S
Cu826       N834   2.096       .  S
N827        N828   1.322       .  A
N827        C831   1.342       .  A
N828        C829   1.352       .  A
C829        C830   1.389       .  A
C829        H832   1.082       .  S
C830        C831   1.379       .  A
C830       C2376   1.473       .  S
C831        H833   1.082       .  S
N834        N835   1.326       .  A
N834        C838   1.347       .  A
N835        C836   1.352       .  A
C836        C837   1.389       .  A
C836        H839   1.082       .  S
C837        C838   1.384       .  A
C837       C2427   1.485       .  S
C838        H840   1.082       .  S
N841        N842   1.321       .  A
N841        C845   1.354       .  A
N841       Cu849   2.098       .  S
N842        C843   1.340       .  A
N842       Cu848   2.056       .  S
C843        C844   1.377       .  A
C843        H846   1.082       .  S
C844        C845   1.391       .  A
C844       C2312   1.473       .  S
C845        H847   1.082       .  S
Cu848       N851   2.057       .  S
Cu849       N859   2.100       .  S
Cu850       N852   2.080       .  S
Cu850       N858   2.082       .  S
N851        N852   1.320       .  A
N851        C855   1.339       .  A
N852        C853   1.351       .  A
C853        C854   1.387       .  A
C853        H856   1.082       .  S
C854        C855   1.379       .  A
C854       C2331   1.469       .  S
C855        H857   1.082       .  S
N858        N859   1.327       .  A
N858        C862   1.345       .  A
N859        C860   1.348       .  A
C860        C861   1.384       .  A
C860        H863   1.082       .  S
C861        C862   1.381       .  A
C861       C2347   1.474       .  S
C862        H864   1.082       .  S
N865        N866   1.321       .  A
N865        C869   1.352       .  A
N865       Cu873   2.088       .  S
N866        C867   1.340       .  A
N866       Cu872   2.063       .  S
C867        C868   1.379       .  A
C867        H870   1.082       .  S
C868        C869   1.389       .  A
C868       C2283   1.473       .  S
C869        H871   1.082       .  S
Cu872       N875   2.063       .  S
Cu873       N883   2.090       .  S
Cu874       N876   2.072       .  S
Cu874       N882   2.074       .  S
N875        N876   1.321       .  A
N875        C879   1.340       .  A
N876        C877   1.349       .  A
C877        C878   1.386       .  A
C877        H880   1.082       .  S
C878        C879   1.379       .  A
C878       C2299   1.468       .  S
C879        H881   1.082       .  S
N882        N883   1.325       .  A
N882        C886   1.345       .  A
N883        C884   1.347       .  A
C884        C885   1.385       .  A
C884        H887   1.082       .  S
C885        C886   1.380       .  A
C885       C2344   1.472       .  S
C886        H888   1.082       .  S
N889        N890   1.322       .  A
N889        C893   1.351       .  A
N889       Cu897   2.094       .  S
N890        C891   1.343       .  A
N890       Cu896   2.065       .  S
C891        C892   1.379       .  A
C891        H894   1.082       .  S
C892        C893   1.387       .  A
C892       C2232   1.470       .  S
C893        H895   1.082       .  S
Cu896       N899   2.064       .  S
Cu897       N907   2.096       .  S
Cu898       N900   2.104       .  S
Cu898       N906   2.106       .  S
N899        N900   1.322       .  A
N899        C903   1.341       .  A
N900        C901   1.354       .  A
C901        C902   1.392       .  A
C901        H904   1.082       .  S
C902        C903   1.381       .  A
C902       C2251   1.481       .  S
C903        H905   1.082       .  S
N906        N907   1.326       .  A
N906        C910   1.349       .  A
N907        C908   1.350       .  A
C908        C909   1.385       .  A
C908        H911   1.082       .  S
C909        C910   1.388       .  A
C909       C2267   1.485       .  S
C910        H912   1.082       .  S
N913        N914   1.321       .  A
N913        C917   1.355       .  A
N913       Cu921   2.108       .  S
N914        C915   1.342       .  A
N914       Cu920   2.066       .  S
C915        C916   1.380       .  A
C915        H918   1.082       .  S
C916        C917   1.394       .  A
C916       C2203   1.482       .  S
C917        H919   1.082       .  S
Cu920       N923   2.065       .  S
Cu921       N931   2.110       .  S
Cu922       N924   2.089       .  S
Cu922       N930   2.092       .  S
N923        N924   1.321       .  A
N923        C927   1.341       .  A
N924        C925   1.352       .  A
C925        C926   1.388       .  A
C925        H928   1.082       .  S
C926        C927   1.380       .  A
C926       C2216   1.474       .  S
C927        H929   1.082       .  S
N930        N931   1.327       .  A
N930        C934   1.348       .  A
N931        C932   1.350       .  A
C932        C933   1.389       .  A
C932        H935   1.082       .  S
C933        C934   1.384       .  A
C933       C2264   1.484       .  S
C934        H936   1.082       .  S
N937        N938   1.320       .  A
N937        C941   1.350       .  A
N937       Cu945   2.085       .  S
N938        C939   1.343       .  A
N938       Cu944   2.061       .  S
C939        C940   1.380       .  A
C939        H942   1.082       .  S
C940        C941   1.389       .  A
C940       C2152   1.474       .  S
C941        H943   1.082       .  S
Cu944       N947   2.062       .  S
Cu945       N955   2.087       .  S
Cu946       N948   2.110       .  S
Cu946       N954   2.112       .  S
N947        N948   1.323       .  A
N947        C951   1.341       .  A
N948        C949   1.355       .  A
C949        C950   1.394       .  A
C949        H952   1.082       .  S
C950        C951   1.378       .  A
C950       C2168   1.480       .  S
C951        H953   1.082       .  S
N954        N955   1.326       .  A
N954        C958   1.352       .  A
N955        C956   1.346       .  A
C956        C957   1.382       .  A
C956        H959   1.082       .  S
C957        C958   1.391       .  A
C957       C2184   1.483       .  S
C958        H960   1.082       .  S
N961        N962   1.323       .  A
N961        C965   1.353       .  A
N961       Cu969   2.106       .  S
N962        C963   1.342       .  A
N962       Cu968   2.067       .  S
C963        C964   1.381       .  A
C963        H966   1.082       .  S
C964        C965   1.390       .  A
C964       C2123   1.480       .  S
C965        H967   1.082       .  S
Cu968       N971   2.066       .  S
Cu969       N979   2.107       .  S
Cu970       N972   2.075       .  S
Cu970       N978   2.078       .  S
N971        N972   1.321       .  A
N971        C975   1.342       .  A
N972        C973   1.348       .  A
C973        C974   1.385       .  A
C973        H976   1.082       .  S
C974        C975   1.381       .  A
C974       C2136   1.469       .  S
C975        H977   1.082       .  S
N978        N979   1.325       .  A
N978        C982   1.345       .  A
N979        C980   1.352       .  A
C980        C981   1.390       .  A
C980        H983   1.082       .  S
C981        C982   1.381       .  A
C981       C2187   1.481       .  S
C982        H984   1.082       .  S
N985        N986   1.320       .  A
N985        C989   1.352       .  A
N985       Cu993   2.097       .  S
N986        C987   1.341       .  A
N986       Cu992   2.054       .  S
C987        C988   1.381       .  A
C987        H990   1.082       .  S
C988        C989   1.391       .  A
C988       C2072   1.478       .  S
C989        H991   1.082       .  S
Cu992       N995   2.053       .  S
Cu993      N1003   2.099       .  S
Cu994       N996   2.094       .  S
Cu994      N1002   2.097       .  S
N995        N996   1.320       .  A
N995        C999   1.338       .  A
N996        C997   1.353       .  A
C997        C998   1.392       .  A
C997       H1000   1.082       .  S
C998        C999   1.380       .  A
C998       C2088   1.478       .  S
C999       H1001   1.081       .  S
N1002      N1003   1.327       .  A
N1002      C1006   1.347       .  A
N1003      C1004   1.350       .  A
C1004      C1005   1.386       .  A
C1004      H1007   1.082       .  S
C1005      C1006   1.384       .  A
C1005      C2107   1.480       .  S
C1006      H1008   1.082       .  S
N1009      N1010   1.321       .  A
N1009      C1013   1.353       .  A
N1009     Cu1017   2.102       .  S
N1010      C1011   1.340       .  A
N1010     Cu1016   2.055       .  S
C1011      C1012   1.379       .  A
C1011      H1014   1.082       .  S
C1012      C1013   1.391       .  A
C1012      C2043   1.476       .  S
C1013      H1015   1.082       .  S
Cu1016     N1019   2.054       .  S
Cu1017     N1027   2.104       .  S
Cu1018     N1020   2.088       .  S
Cu1018     N1026   2.092       .  S
N1019      N1020   1.320       .  A
N1019      C1023   1.339       .  A
N1020      C1021   1.352       .  A
C1021      C1022   1.389       .  A
C1021      H1024   1.082       .  S
C1022      C1023   1.377       .  A
C1022      C2059   1.469       .  S
C1023      H1025   1.082       .  S
N1026      N1027   1.327       .  A
N1026      C1030   1.345       .  A
N1027      C1028   1.351       .  A
C1028      C1029   1.386       .  A
C1028      H1031   1.082       .  S
C1029      C1030   1.384       .  A
C1029      C2104   1.482       .  S
C1030      H1032   1.082       .  S
N1033      N1034   1.321       .  A
N1033      C1037   1.351       .  A
N1033     Cu1041   2.091       .  S
N1034      C1035   1.342       .  A
N1034     Cu1040   2.062       .  S
C1035      C1036   1.381       .  A
C1035      H1038   1.082       .  S
C1036      C1037   1.388       .  A
C1036      C2008   1.475       .  S
C1037      H1039   1.082       .  S
Cu1040     N1043   2.062       .  S
Cu1041     N1051   2.093       .  S
Cu1042     N1044   2.083       .  S
Cu1042     N1050   2.086       .  S
N1043      N1044   1.321       .  A
N1043      C1047   1.339       .  A
N1044      C1045   1.351       .  A
C1045      C1046   1.388       .  A
C1045      H1048   1.082       .  S
C1046      C1047   1.379       .  A
C1046      C1995   1.471       .  S
C1047      H1049   1.082       .  S
N1050      N1051   1.325       .  A
N1050      C1054   1.346       .  A
N1051      C1052   1.348       .  A
C1052      C1053   1.385       .  A
C1052      H1055   1.082       .  S
C1053      C1054   1.383       .  A
C1053      C2024   1.477       .  S
C1054      H1056   1.082       .  S
N1057      N1058   1.321       .  A
N1057      C1061   1.351       .  A
N1057     Cu1065   2.092       .  S
N1058      C1059   1.342       .  A
N1058     Cu1064   2.061       .  S
C1059      C1060   1.381       .  A
C1059      H1062   1.082       .  S
C1060      C1061   1.388       .  A
C1060      C1979   1.475       .  S
C1061      H1063   1.082       .  S
Cu1064     N1067   2.060       .  S
Cu1065     N1075   2.094       .  S
Cu1066     N1068   2.085       .  S
Cu1066     N1074   2.088       .  S
N1067      N1068   1.321       .  A
N1067      C1071   1.339       .  A
N1068      C1069   1.352       .  A
C1069      C1070   1.388       .  A
C1069      H1072   1.082       .  S
C1070      C1071   1.380       .  A
C1070      C1963   1.474       .  S
C1071      H1073   1.082       .  S
N1074      N1075   1.325       .  A
N1074      C1078   1.346       .  A
N1075      C1076   1.349       .  A
C1076      C1077   1.385       .  A
C1076      H1079   1.082       .  S
C1077      C1078   1.384       .  A
C1077      C2027   1.478       .  S
C1078      H1080   1.082       .  S
N1081      N1082   1.321       .  A
N1081      C1085   1.353       .  A
N1081     Cu1089   2.106       .  S
N1082      C1083   1.342       .  A
N1082     Cu1088   2.063       .  S
C1083      C1084   1.382       .  A
C1083      H1086   1.082       .  S
C1084      C1085   1.392       .  A
C1084      C1931   1.482       .  S
C1085      H1087   1.082       .  S
Cu1088     N1091   2.062       .  S
Cu1089     N1099   2.109       .  S
Cu1090     N1092   2.101       .  S
Cu1090     N1098   2.105       .  S
N1091      N1092   1.321       .  A
N1091      C1095   1.340       .  A
N1092      C1093   1.355       .  A
C1093      C1094   1.392       .  A
C1093      H1096   1.082       .  S
C1094      C1095   1.378       .  A
C1094      C1912   1.477       .  S
C1095      H1097   1.082       .  S
N1098      N1099   1.327       .  A
N1098      C1102   1.348       .  A
N1099      C1100   1.353       .  A
C1100      C1101   1.388       .  A
C1100      H1103   1.082       .  S
C1101      C1102   1.387       .  A
C1101      C1947   1.489       .  S
C1102      H1104   1.082       .  S
N1105      N1106   1.321       .  A
N1105      C1109   1.356       .  A
N1105     Cu1113   2.112       .  S
N1106      C1107   1.340       .  A
N1106     Cu1112   2.055       .  S
C1107      C1108   1.381       .  A
C1107      H1110   1.082       .  S
C1108      C1109   1.395       .  A
C1108      C1880   1.485       .  S
C1109      H1111   1.082       .  S
Cu1112     N1115   2.053       .  S
Cu1113     N1123   2.116       .  S
Cu1114     N1116   2.101       .  S
Cu1114     N1122   2.105       .  S
N1115      N1116   1.320       .  A
N1115      C1119   1.339       .  A
N1116      C1117   1.354       .  A
C1117      C1118   1.392       .  A
C1117      H1120   1.082       .  S
C1118      C1119   1.379       .  A
C1118      C1899   1.477       .  S
C1119      H1121   1.082       .  S
N1122      N1123   1.327       .  A
N1122      C1126   1.349       .  A
N1123      C1124   1.353       .  A
C1124      C1125   1.390       .  A
C1124      H1127   1.082       .  S
C1125      C1126   1.385       .  A
C1125      C1944   1.488       .  S
C1126      H1128   1.082       .  S
N1129      N1130   1.321       .  A
N1129      C1133   1.354       .  A
N1129     Cu1137   2.104       .  S
N1130      C1131   1.341       .  A
N1130     Cu1136   2.057       .  S
C1131      C1132   1.381       .  A
C1131      H1134   1.081       .  S
C1132      C1133   1.393       .  A
C1132      C1832   1.482       .  S
C1133      H1135   1.082       .  S
Cu1136     N1139   2.055       .  S
Cu1137     N1147   2.106       .  S
Cu1138     N1140   2.089       .  S
Cu1138     N1146   2.093       .  S
N1139      N1140   1.320       .  A
N1139      C1143   1.339       .  A
N1140      C1141   1.352       .  A
C1141      C1142   1.389       .  A
C1141      H1144   1.082       .  S
C1142      C1143   1.379       .  A
C1142      C1851   1.473       .  S
C1143      H1145   1.082       .  S
N1146      N1147   1.326       .  A
N1146      C1150   1.347       .  A
N1147      C1148   1.351       .  A
C1148      C1149   1.387       .  A
C1148      H1151   1.082       .  S
C1149      C1150   1.385       .  A
C1149      C1867   1.483       .  S
C1150      H1152   1.082       .  S
N1153      N1154   1.321       .  A
N1153      C1157   1.352       .  A
N1153     Cu1161   2.092       .  S
N1154      C1155   1.340       .  A
N1154     Cu1160   2.059       .  S
C1155      C1156   1.380       .  A
C1155      H1158   1.082       .  S
C1156      C1157   1.389       .  A
C1156      C1819   1.476       .  S
C1157      H1159   1.082       .  S
Cu1160     N1163   2.058       .  S
Cu1161     N1171   2.094       .  S
Cu1162     N1164   2.090       .  S
Cu1162     N1170   2.093       .  S
N1163      N1164   1.321       .  A
N1163      C1167   1.340       .  A
N1164      C1165   1.352       .  A
C1165      C1166   1.389       .  A
C1165      H1168   1.082       .  S
C1166      C1167   1.379       .  A
C1166      C1800   1.472       .  S
C1167      H1169   1.082       .  S
N1170      N1171   1.325       .  A
N1170      C1174   1.347       .  A
N1171      C1172   1.350       .  A
C1172      C1173   1.387       .  A
C1172      H1175   1.082       .  S
C1173      C1174   1.384       .  A
C1173      C1864   1.481       .  S
C1174      H1176   1.082       .  S
C1177      C1178   1.544       .  S
C1177      C1183   1.539       .  S
C1177      C1181   1.538       .  S
C1177      C1848   1.509       .  S
C1178      H1185   1.085       .  S
C1178      C1179   1.369       .  D
C1179      C1180   1.541       .  S
C1179      C2443   1.488       .  S
C1180      C1184   1.542       .  S
C1180      C1182   1.532       .  S
C1180      H1186   1.102       .  S
C1181      H1187   1.087       .  S
C1181      C1182   1.360       .  D
C1182      C3579   1.474       .  S
C1183      H1188   1.086       .  S
C1183      C1184   1.367       .  D
C1184      C1992   1.484       .  S
C1189      C1190   1.531       .  S
C1189      C1195   1.536       .  S
C1189      C1193   1.529       .  S
C1189      C2523   1.515       .  S
C1190      H1197   1.085       .  S
C1190      C1191   1.368       .  D
C1191      C1192   1.549       .  S
C1191      C1835   1.489       .  S
C1192      C1196   1.550       .  S
C1192      C1194   1.540       .  S
C1192      H1198   1.111       .  S
C1193      H1199   1.085       .  S
C1193      C1194   1.366       .  D
C1194      C3595   1.486       .  S
C1195      H1200   1.085       .  S
C1195      C1196   1.374       .  D
C1196      C1928   1.489       .  S
C1201      C1202   1.536       .  S
C1201      C1207   1.542       .  S
C1201      C1205   1.536       .  S
C1201      C1915   1.514       .  S
C1202      H1209   1.085       .  S
C1202      C1203   1.369       .  D
C1203      C1204   1.543       .  S
C1203      C2011   1.486       .  S
C1204      C1208   1.541       .  S
C1204      C1206   1.536       .  S
C1204      H1210   1.110       .  S
C1205      H1211   1.087       .  S
C1205      C1206   1.360       .  D
C1206      C3563   1.475       .  S
C1207      H1212   1.085       .  S
C1207      C1208   1.374       .  D
C1208      C2680   1.487       .  S
N1213      N1214   1.322       .  A
N1213      C1217   1.353       .  A
N1213     Cu1221   2.098       .  S
N1214      C1215   1.342       .  A
N1214     Cu1220   2.066       .  S
C1215      C1216   1.380       .  A
C1215      H1218   1.082       .  S
C1216      C1217   1.391       .  A
C1216      C1768   1.477       .  S
C1217      H1219   1.082       .  S
Cu1220     N1223   2.066       .  S
Cu1221     N1231   2.100       .  S
Cu1222     N1224   2.097       .  S
Cu1222     N1230   2.098       .  S
N1223      N1224   1.322       .  A
N1223      C1227   1.343       .  A
N1224      C1225   1.352       .  A
C1225      C1226   1.389       .  A
C1225      H1228   1.082       .  S
C1226      C1227   1.381       .  A
C1226      C1752   1.478       .  S
C1227      H1229   1.082       .  S
N1230      N1231   1.326       .  A
N1230      C1234   1.349       .  A
N1231      C1232   1.349       .  A
C1232      C1233   1.387       .  A
C1232      H1235   1.082       .  S
C1233      C1234   1.386       .  A
C1233      C1784   1.484       .  S
C1234      H1236   1.082       .  S
N1237      N1238   1.321       .  A
N1237      C1241   1.353       .  A
N1237     Cu1245   2.097       .  S
N1238      C1239   1.340       .  A
N1238     Cu1244   2.056       .  S
C1239      C1240   1.380       .  A
C1239      H1242   1.082       .  S
C1240      C1241   1.391       .  A
C1240      C1723   1.477       .  S
C1241      H1243   1.082       .  S
Cu1244     N1247   2.056       .  S
Cu1245     N1255   2.100       .  S
Cu1246     N1248   2.098       .  S
Cu1246     N1254   2.101       .  S
N1247      N1248   1.321       .  A
N1247      C1251   1.341       .  A
N1248      C1249   1.352       .  A
C1249      C1250   1.389       .  A
C1249      H1252   1.082       .  S
C1250      C1251   1.376       .  A
C1250      C1739   1.469       .  S
C1251      H1253   1.082       .  S
N1254      N1255   1.326       .  A
N1254      C1258   1.349       .  A
N1255      C1256   1.349       .  A
C1256      C1257   1.387       .  A
C1256      H1259   1.082       .  S
C1257      C1258   1.385       .  A
C1257      C1787   1.484       .  S
C1258      H1260   1.082       .  S
C1261      C1262   1.540       .  S
C1261      C1267   1.538       .  S
C1261      C1265   1.534       .  S
C1261      C3240   1.512       .  S
C1262      H1269   1.085       .  S
C1262      C1263   1.367       .  D
C1263      C1264   1.539       .  S
C1263      C1976   1.485       .  S
C1264      C1268   1.550       .  S
C1264      C1266   1.534       .  S
C1264      H1270   1.107       .  S
C1265      H1271   1.087       .  S
C1265      C1266   1.360       .  D
C1266      C3787   1.473       .  S
C1267      H1272   1.086       .  S
C1267      C1268   1.373       .  D
C1268      C1771   1.488       .  S
C1273      C1274   1.538       .  S
C1273      C1279   1.540       .  S
C1273      C1277   1.533       .  S
C1273      C3083   1.515       .  S
C1274      H1281   1.085       .  S
C1274      C1275   1.371       .  D
C1275      C1276   1.544       .  S
C1275      C2248   1.488       .  S
C1276      C1280   1.545       .  S
C1276      C1278   1.531       .  S
C1276      H1282   1.111       .  S
C1277      H1283   1.087       .  S
C1277      C1278   1.359       .  D
C1278      C3656   1.470       .  S
C1279      H1284   1.083       .  S
C1279      C1280   1.372       .  D
C1280      C1816   1.484       .  S
C1285      C1286   1.542       .  S
C1285      C1291   1.533       .  S
C1285      C1289   1.532       .  S
C1285      C2744   1.512       .  S
C1286      H1293   1.084       .  S
C1286      C1287   1.376       .  D
C1287      C1288   1.549       .  S
C1287      C1883   1.488       .  S
C1288      C1292   1.544       .  S
C1288      C1290   1.534       .  S
C1288      H1294   1.110       .  S
C1289      H1295   1.087       .  S
C1289      C1290   1.361       .  D
C1290      C3720   1.478       .  S
C1291      H1296   1.085       .  S
C1291      C1292   1.366       .  D
C1292      C2091   1.484       .  S
C1297      C1298   1.543       .  S
C1297      C1303   1.535       .  S
C1297      C1301   1.532       .  S
C1297      C1896   1.513       .  S
C1298      H1305   1.084       .  S
C1298      C1299   1.371       .  D
C1299      C1300   1.544       .  S
C1299      C3163   1.484       .  S
C1300      C1304   1.545       .  S
C1300      C1302   1.540       .  S
C1300      H1306   1.109       .  S
C1301      H1307   1.087       .  S
C1301      C1302   1.360       .  D
C1302      C3704   1.480       .  S
C1303      H1308   1.085       .  S
C1303      C1304   1.369       .  D
C1304      C2411   1.487       .  S
C1309      C1310   1.535       .  S
C1309      C1315   1.540       .  S
C1309      C1313   1.537       .  S
C1309      C1803   1.511       .  S
C1310      H1317   1.086       .  S
C1310      C1311   1.365       .  D
C1311      C1312   1.548       .  S
C1311      C2171   1.489       .  S
C1312      C1316   1.550       .  S
C1312      C1314   1.537       .  S
C1312      H1318   1.104       .  S
C1313      H1319   1.087       .  S
C1313      C1314   1.361       .  D
C1314      C3640   1.479       .  S
C1315      H1320   1.086       .  S
C1315      C1316   1.371       .  D
C1316      C3003   1.492       .  S
C1321      C1322   1.542       .  S
C1321      C1327   1.538       .  S
C1321      C1325   1.533       .  S
C1321      C2600   1.505       .  S
C1322      H1329   1.085       .  S
C1322      C1323   1.373       .  D
C1323      C1324   1.542       .  S
C1323      C2328   1.482       .  S
C1324      C1328   1.536       .  S
C1324      C1326   1.532       .  S
C1324      H1330   1.110       .  S
C1325      H1331   1.087       .  S
C1325      C1326   1.358       .  D
C1326      C3771   1.470       .  S
C1327      H1332   1.085       .  S
C1327      C1328   1.365       .  D
C1328      C1960   1.479       .  S
C1333      C1334   1.541       .  S
C1333      C1339   1.542       .  S
C1333      C1337   1.535       .  S
C1333      C1755   1.518       .  S
C1334      H1341   1.086       .  S
C1334      C1335   1.369       .  D
C1335      C1336   1.544       .  S
C1335      C2315   1.488       .  S
C1336      C1340   1.545       .  S
C1336      C1338   1.538       .  S
C1336      H1342   1.107       .  S
C1337      H1343   1.087       .  S
C1337      C1338   1.363       .  D
C1338      C3752   1.481       .  S
C1339      H1344   1.083       .  S
C1339      C1340   1.370       .  D
C1340      C2555   1.489       .  S
C1345      C1346   1.538       .  S
C1345      C1351   1.541       .  S
C1345      C1349   1.531       .  S
C1345      C2155   1.512       .  S
C1346      H1353   1.085       .  S
C1346      C1347   1.372       .  D
C1347      C1348   1.541       .  S
C1347      C2235   1.481       .  S
C1348      C1352   1.541       .  S
C1348      C1350   1.536       .  S
C1348      H1354   1.109       .  S
C1349      H1355   1.087       .  S
C1349      C1350   1.360       .  D
C1350      C3627   1.474       .  S
C1351      H1356   1.086       .  S
C1351      C1352   1.369       .  D
C1352      C2715   1.484       .  S
C1357      C1358   1.534       .  S
C1357      C1363   1.539       .  S
C1357      C1361   1.530       .  S
C1357      C2472   1.514       .  S
C1358      H1365   1.085       .  S
C1358      C1359   1.371       .  D
C1359      C1360   1.545       .  S
C1359      C2075   1.485       .  S
C1360      C1364   1.549       .  S
C1360      C1362   1.536       .  S
C1360      H1366   1.109       .  S
C1361      H1367   1.085       .  S
C1361      C1362   1.363       .  D
C1362      C3691   1.483       .  S
C1363      H1368   1.085       .  S
C1363      C1364   1.371       .  D
C1364      C2395   1.487       .  S
C1369      C1370   1.543       .  S
C1369      C1375   1.537       .  S
C1369      C1373   1.535       .  S
C1369      C3179   1.511       .  S
C1370      H1377   1.085       .  S
C1370      C1371   1.374       .  D
C1371      C1372   1.542       .  S
C1371      C2763   1.485       .  S
C1372      C1376   1.538       .  S
C1372      C1374   1.535       .  S
C1372      H1378   1.109       .  S
C1373      H1379   1.087       .  S
C1373      C1374   1.362       .  D
C1374      C3739   1.478       .  S
C1375      H1380   1.085       .  S
C1375      C1376   1.364       .  D
C1376      C2491   1.481       .  S
C1381      C1382   1.538       .  S
C1381      C1387   1.540       .  S
C1381      C1385   1.536       .  S
C1381      C2571   1.512       .  S
C1382      H1389   1.086       .  S
C1382      C1383   1.367       .  D
C1383      C1384   1.542       .  S
C1383      C2619   1.489       .  S
C1384      C1388   1.548       .  S
C1384      C1386   1.534       .  S
C1384      H1390   1.110       .  S
C1385      H1391   1.087       .  S
C1385      C1386   1.360       .  D
C1386      C3800   1.474       .  S
C1387      H1392   1.084       .  S
C1387      C1388   1.374       .  D
C1388      C3259   1.488       .  S
C1393      C1394   1.549       .  S
C1393      C1399   1.539       .  S
C1393      C1397   1.534       .  S
C1393      C2219   1.511       .  S
C1394      H1401   1.084       .  S
C1394      C1395   1.373       .  D
C1395      C1396   1.542       .  S
C1395      C3323   1.489       .  S
C1396      C1400   1.541       .  S
C1396      C1398   1.528       .  S
C1396      H1402   1.102       .  S
C1397      H1403   1.087       .  S
C1397      C1398   1.356       .  D
C1398      C3864   1.468       .  S
C1399      H1404   1.086       .  S
C1399      C1400   1.368       .  D
C1400      C2056   1.484       .  S
C1405      C1406   1.547       .  S
C1405      C1411   1.539       .  S
C1405      C1409   1.536       .  S
C1405      C3400   1.510       .  S
C1406      H1413   1.085       .  S
C1406      C1407   1.372       .  D
C1407      C1408   1.540       .  S
C1407      C2139   1.485       .  S
C1408      C1412   1.539       .  S
C1408      C1410   1.524       .  S
C1408      H1414   1.102       .  S
C1409      H1415   1.087       .  S
C1409      C1410   1.357       .  D
C1410      C3931   1.465       .  S
C1411      H1416   1.086       .  S
C1411      C1412   1.367       .  D
C1412      C2296   1.482       .  S
C1417      C1418   1.539       .  S
C1417      C1423   1.543       .  S
C1417      C1421   1.538       .  S
C1417      C3032   1.512       .  S
C1418      H1425   1.086       .  S
C1418      C1419   1.374       .  D
C1419      C1420   1.549       .  S
C1419      C2936   1.489       .  S
C1420      C1424   1.534       .  S
C1420      C1422   1.531       .  S
C1420      H1426   1.108       .  S
C1421      H1427   1.086       .  S
C1421      C1422   1.361       .  D
C1422      C3832   1.473       .  S
C1423      H1428   1.086       .  S
C1423      C1424   1.363       .  D
C1424      C2040   1.480       .  S
C1429      C1430   1.538       .  S
C1429      C1435   1.543       .  S
C1429      C1433   1.536       .  S
C1429      C3195   1.516       .  S
C1430      H1437   1.086       .  S
C1430      C1431   1.364       .  D
C1431      C1432   1.547       .  S
C1431      C2200   1.492       .  S
C1432      C1436   1.556       .  S
C1432      C1434   1.537       .  S
C1432      H1438   1.105       .  S
C1433      H1439   1.087       .  S
C1433      C1434   1.360       .  D
C1434      C3819   1.478       .  S
C1435      H1440   1.086       .  S
C1435      C1436   1.376       .  D
C1436      C2955   1.499       .  S
C1441      C1442   1.535       .  S
C1441      C1447   1.533       .  S
C1441      C1445   1.529       .  S
C1441      C2379   1.511       .  S
C1442      H1449   1.085       .  S
C1442      C1443   1.370       .  D
C1443      C1444   1.543       .  S
C1443      C3480   1.483       .  S
C1444      C1448   1.547       .  S
C1444      C1446   1.540       .  S
C1444      H1450   1.111       .  S
C1445      H1451   1.086       .  S
C1445      C1446   1.364       .  D
C1446      C3976   1.482       .  S
C1447      H1452   1.084       .  S
C1447      C1448   1.371       .  D
C1448      C1736   1.486       .  S
N1453      N1454   1.322       .  A
N1453      C1457   1.355       .  A
N1453     Cu1461   2.107       .  S
N1454      C1455   1.341       .  A
N1454     Cu1460   2.062       .  S
C1455      C1456   1.378       .  A
C1455      H1458   1.082       .  S
C1456      C1457   1.393       .  A
C1456      C1691   1.479       .  S
C1457      H1459   1.082       .  S
Cu1460     N1463   2.061       .  S
Cu1461     N1471   2.110       .  S
Cu1462     N1464   2.093       .  S
Cu1462     N1470   2.096       .  S
N1463      N1464   1.321       .  A
N1463      C1467   1.341       .  A
N1464      C1465   1.352       .  A
C1465      C1466   1.389       .  A
C1465      H1468   1.082       .  S
C1466      C1467   1.380       .  A
C1466      C1675   1.474       .  S
C1467      H1469   1.082       .  S
N1470      N1471   1.327       .  A
N1470      C1474   1.348       .  A
N1471      C1472   1.352       .  A
C1472      C1473   1.388       .  A
C1472      H1475   1.082       .  S
C1473      C1474   1.386       .  A
C1473      C1707   1.486       .  S
C1474      H1476   1.082       .  S
N1477      N1478   1.320       .  A
N1477      C1481   1.352       .  A
N1477     Cu1485   2.098       .  S
N1478      C1479   1.341       .  A
N1478     Cu1484   2.051       .  S
C1479      C1480   1.378       .  A
C1479      H1482   1.082       .  S
C1480      C1481   1.390       .  A
C1480      C1656   1.473       .  S
C1481      H1483   1.082       .  S
Cu1484     N1487   2.049       .  S
Cu1485     N1495   2.101       .  S
Cu1486     N1488   2.106       .  S
Cu1486     N1494   2.109       .  S
N1487      N1488   1.320       .  A
N1487      C1491   1.338       .  A
N1488      C1489   1.355       .  A
C1489      C1490   1.394       .  A
C1489      H1492   1.082       .  S
C1490      C1491   1.379       .  A
C1490      C1640   1.479       .  S
C1491      H1493   1.082       .  S
N1494      N1495   1.327       .  A
N1494      C1498   1.350       .  A
N1495      C1496   1.349       .  A
C1496      C1497   1.385       .  A
C1496      H1499   1.082       .  S
C1497      C1498   1.388       .  A
C1497      C1704   1.485       .  S
C1498      H1500   1.082       .  S
C1501      C1502   1.539       .  S
C1501      C1507   1.537       .  S
C1501      C1505   1.534       .  S
C1501      C2776   1.512       .  S
C1502      H1509   1.086       .  S
C1502      C1503   1.372       .  D
C1503      C1504   1.549       .  S
C1503      C1688   1.489       .  S
C1504      C1508   1.542       .  S
C1504      C1506   1.535       .  S
C1504      H1510   1.107       .  S
C1505      H1511   1.087       .  S
C1505      C1506   1.360       .  D
C1506      C3960   1.475       .  S
C1507      H1512   1.085       .  S
C1507      C1508   1.368       .  D
C1508      C1720   1.485       .  S
C1513      C1514   1.539       .  S
C1513      C1519   1.535       .  S
C1513      C1517   1.529       .  S
C1513      C1672   1.511       .  S
C1514      H1521   1.084       .  S
C1514      C1515   1.372       .  D
C1515      C1516   1.546       .  S
C1515      C2635   1.490       .  S
C1516      C1520   1.548       .  S
C1516      C1518   1.539       .  S
C1516      H1522   1.109       .  S
C1517      H1523   1.087       .  S
C1517      C1518   1.359       .  D
C1518      C3947   1.476       .  S
C1519      H1524   1.085       .  S
C1519      C1520   1.370       .  D
C1520      C2360   1.490       .  S
C1525      C1526   1.543       .  S
C1525      C1531   1.537       .  S
C1525      C1529   1.535       .  S
C1525      C3115   1.510       .  S
C1526      H1533   1.086       .  S
C1526      C1527   1.372       .  D
C1527      C1528   1.545       .  S
C1527      C2280   1.489       .  S
C1528      C1532   1.544       .  S
C1528      C1530   1.533       .  S
C1528      H1534   1.102       .  S
C1529      H1535   1.087       .  S
C1529      C1530   1.358       .  D
C1530      C3899   1.474       .  S
C1531      H1536   1.086       .  S
C1531      C1532   1.366       .  D
C1532      C2872   1.485       .  S
C1537      C1538   1.538       .  S
C1537      C1543   1.543       .  S
C1537      C1541   1.536       .  S
C1537      C3272   1.515       .  S
C1538      H1545   1.085       .  S
C1538      C1539   1.368       .  D
C1539      C1540   1.543       .  S
C1539      C2859   1.490       .  S
C1540      C1544   1.544       .  S
C1540      C1542   1.535       .  S
C1540      H1546   1.109       .  S
C1541      H1547   1.087       .  S
C1541      C1542   1.360       .  D
C1542      C3883   1.476       .  S
C1543      H1548   1.085       .  S
C1543      C1544   1.375       .  D
C1544      C2120   1.489       .  S
C1549      C1550   1.532       .  S
C1549      C1555   1.543       .  S
C1549      C1553   1.531       .  S
C1549      C3419   1.515       .  S
C1550      H1557   1.086       .  S
C1550      C1551   1.365       .  D
C1551      C1552   1.548       .  S
C1551      C3131   1.484       .  S
C1552      C1556   1.548       .  S
C1552      C1554   1.537       .  S
C1552      H1558   1.109       .  S
C1553      H1559   1.087       .  S
C1553      C1554   1.361       .  D
C1554      C3915   1.478       .  S
C1555      H1560   1.084       .  S
C1555      C1556   1.376       .  D
C1556      C3288   1.489       .  S
C1561      C1562   1.542       .  S
C1561      C1567   1.539       .  S
C1561      C1565   1.531       .  S
C1561      C2648   1.513       .  S
C1562      H1569   1.085       .  S
C1562      C1563   1.376       .  D
C1563      C1564   1.544       .  S
C1563      C2795   1.484       .  S
C1564      C1568   1.539       .  S
C1564      C1566   1.532       .  S
C1564      H1570   1.111       .  S
C1565      H1571   1.087       .  S
C1565      C1566   1.361       .  D
C1566      C3995   1.476       .  S
C1567      H1572   1.085       .  S
C1567      C1568   1.368       .  D
C1568      C3499   1.485       .  S
C1573      C1574   1.540       .  S
C1573      C1579   1.538       .  S
C1573      C1577   1.538       .  S
C1573      C3208   1.515       .  S
C1574      H1581   1.085       .  S
C1574      C1575   1.373       .  D
C1575      C1576   1.544       .  S
C1575      C3051   1.482       .  S
C1576      C1580   1.542       .  S
C1576      C1578   1.535       .  S
C1576      H1582   1.108       .  S
C1577      H1583   1.087       .  S
C1577      C1578   1.361       .  D
C1578      C3851   1.477       .  S
C1579      H1584   1.086       .  S
C1579      C1580   1.366       .  D
C1580      C3339   1.486       .  S
C1585      C1586   1.539       .  S
C1585      C1591   1.538       .  S
C1585      C1589   1.531       .  S
C1585      C3355   1.515       .  S
C1586      H1593   1.086       .  S
C1586      C1587   1.373       .  D
C1587      C1588   1.549       .  S
C1587      C2824   1.489       .  S
C1588      C1592   1.544       .  S
C1588      C1590   1.534       .  S
C1588      H1594   1.109       .  S
C1589      H1595   1.086       .  S
C1589      C1590   1.361       .  D
C1590      C4043   1.477       .  S
C1591      H1596   1.085       .  S
C1591      C1592   1.370       .  D
C1592      C1643   1.487       .  S
C1597      C1598   1.543       .  S
C1597      C1603   1.536       .  S
C1597      C1601   1.529       .  S
C1597      C3515   1.513       .  S
C1598      H1605   1.085       .  S
C1598      C1599   1.373       .  D
C1599      C1600   1.549       .  S
C1599      C2907   1.488       .  S
C1600      C1604   1.547       .  S
C1600      C1602   1.535       .  S
C1600      H1606   1.106       .  S
C1601      H1607   1.087       .  S
C1601      C1602   1.360       .  D
C1602      C4024   1.481       .  S
C1603      H1608   1.086       .  S
C1603      C1604   1.368       .  D
C1604      C2843   1.486       .  S
C1609      C1610   1.543       .  S
C1609      C1615   1.535       .  S
C1609      C1613   1.539       .  S
C1609      C2920   1.515       .  S
C1610      H1617   1.083       .  S
C1610      C1611   1.372       .  D
C1611      C1612   1.541       .  S
C1611      C3435   1.485       .  S
C1612      C1616   1.540       .  S
C1612      C1614   1.533       .  S
C1612      H1618   1.110       .  S
C1613      H1619   1.087       .  S
C1613      C1614   1.362       .  D
C1614      C4011   1.475       .  S
C1615      H1620   1.086       .  S
C1615      C1616   1.368       .  D
C1616      C1659   1.481       .  S
C1621      C1622   1.536       .  S
C1621      C1627   1.543       .  S
C1621      C1625   1.535       .  S
C1621      C3531   1.511       .  S
C1622      H1629   1.085       .  S
C1622      C1623   1.365       .  D
C1623      C1624   1.541       .  S
C1623      C3371   1.487       .  S
C1624      C1628   1.550       .  S
C1624      C1626   1.530       .  S
C1624      H1630   1.107       .  S
C1625      H1631   1.087       .  S
C1625      C1626   1.357       .  D
C1626      C4059   1.468       .  S
C1627      H1632   1.086       .  S
C1627      C1628   1.376       .  D
C1628      C3448   1.492       .  S
C1633      C1638   1.380       .  A
C1633      C1634   1.408       .  A
C1633      O1639   1.326       .  A
C1634      C1635   1.409       .  A
C1634      H1645   1.082       .  S
C1635      C1644   1.365       .  A
C1635      C1636   1.379       .  A
C1636      C1637   1.401       .  A
C1636      O1642   1.319       .  A
C1637      C1638   1.401       .  A
C1637      H1646   1.082       .  S
C1638      C1641   1.356       .  A
O1639      C1640   1.334       .  A
C1640      C1641   1.391       .  A
C1641      H1647   1.082       .  S
O1642      C1643   1.330       .  A
C1643      C1644   1.397       .  A
C1644      H1648   1.082       .  S
C1649      C1654   1.381       .  A
C1649      C1650   1.406       .  A
C1649      O1655   1.323       .  A
C1650      C1651   1.406       .  A
C1650      H1661   1.082       .  S
C1651      C1660   1.364       .  A
C1651      C1652   1.380       .  A
C1652      C1653   1.403       .  A
C1652      O1658   1.319       .  A
C1653      C1654   1.403       .  A
C1653      H1662   1.082       .  S
C1654      C1657   1.360       .  A
O1655      C1656   1.331       .  A
C1656      C1657   1.391       .  A
C1657      H1663   1.083       .  S
O1658      C1659   1.331       .  A
C1659      C1660   1.394       .  A
C1660      H1664   1.082       .  S
C1665      C1670   1.379       .  A
C1665      C1666   1.402       .  A
C1665      O1671   1.317       .  A
C1666      C1667   1.401       .  A
C1666      H1677   1.082       .  S
C1667      C1676   1.359       .  A
C1667      C1668   1.380       .  A
C1668      C1669   1.408       .  A
C1668      O1674   1.324       .  A
C1669      C1670   1.408       .  A
C1669      H1678   1.082       .  S
C1670      C1673   1.366       .  A
O1671      C1672   1.332       .  A
C1672      C1673   1.397       .  A
C1673      H1679   1.082       .  S
O1674      C1675   1.332       .  A
C1675      C1676   1.390       .  A
C1676      H1680   1.083       .  S
C1681      C1686   1.378       .  A
C1681      C1682   1.411       .  A
C1681      O1687   1.325       .  A
C1682      C1683   1.410       .  A
C1682      H1693   1.082       .  S
C1683      C1692   1.372       .  A
C1683      C1684   1.380       .  A
C1684      C1685   1.402       .  A
C1684      O1690   1.317       .  A
C1685      C1686   1.401       .  A
C1685      H1694   1.082       .  S
C1686      C1689   1.361       .  A
O1687      C1688   1.336       .  A
C1688      C1689   1.392       .  A
C1689      H1695   1.082       .  S
O1690      C1691   1.331       .  A
C1691      C1692   1.395       .  A
C1692      H1696   1.082       .  S
C1697      C1702   1.379       .  A
C1697      C1698   1.407   1_455  A
C1697      O1703   1.323       .  A
C1698      C1699   1.406       .  A
C1698      H1709   1.082       .  S
C1699      C1708   1.365       .  A
C1699      C1700   1.379       .  A
C1700      C1701   1.409       .  A
C1700      O1706   1.325       .  A
C1701      C1702   1.408   1_655  A
C1701      H1710   1.082       .  S
C1702      C1705   1.367       .  A
O1703      C1704   1.333       .  A
C1704      C1705   1.395       .  A
C1705      H1711   1.082       .  S
O1706      C1707   1.334       .  A
C1707      C1708   1.394       .  A
C1708      H1712   1.082       .  S
C1713      C1718   1.379       .  A
C1713      C1714   1.401       .  A
C1713      O1719   1.318       .  A
C1714      C1715   1.401       .  A
C1714      H1725   1.082       .  S
C1715      C1724   1.357       .  A
C1715      C1716   1.380       .  A
C1716      C1717   1.408       .  A
C1716      O1722   1.325       .  A
C1717      C1718   1.408       .  A
C1717      H1726   1.082       .  S
C1718      C1721   1.365       .  A
O1719      C1720   1.330       .  A
C1720      C1721   1.397       .  A
C1721      H1727   1.082       .  S
O1722      C1723   1.333       .  A
C1723      C1724   1.391       .  A
C1724      H1728   1.082       .  S
C1729      C1734   1.379       .  A
C1729      C1730   1.406       .  A
C1729      O1735   1.322       .  A
C1730      C1731   1.406       .  A
C1730      H1741   1.082       .  S
C1731      C1740   1.364       .  A
C1731      C1732   1.380       .  A
C1732      C1733   1.404       .  A
C1732      O1738   1.320       .  A
C1733      C1734   1.404       .  A
C1733      H1742   1.082       .  S
C1734      C1737   1.361       .  A
O1735      C1736   1.333       .  A
C1736      C1737   1.395       .  A
C1737      H1743   1.082       .  S
O1738      C1739   1.331       .  A
C1739      C1740   1.391       .  A
C1740      H1744   1.082       .  S
C1745      C1750   1.380       .  A
C1745      C1746   1.407       .  A
C1745      O1751   1.324       .  A
C1746      C1747   1.408       .  A
C1746      H1757   1.082       .  S
C1747      C1756   1.366       .  A
C1747      C1748   1.379       .  A
C1748      C1749   1.404       .  A
C1748      O1754   1.319       .  A
C1749      C1750   1.403       .  A
C1749      H1758   1.082       .  S
C1750      C1753   1.361       .  A
O1751      C1752   1.333       .  A
C1752      C1753   1.392       .  A
C1753      H1759   1.082       .  S
O1754      C1755   1.333       .  A
C1755      C1756   1.398       .  A
C1756      H1760   1.081       .  S
C1761      C1766   1.380       .  A
C1761      C1762   1.402       .  A
C1761      O1767   1.317       .  A
C1762      C1763   1.401       .  A
C1762      H1773   1.082       .  S
C1763      C1772   1.360       .  A
C1763      C1764   1.378       .  A
C1764      C1765   1.409       .  A
C1764      O1770   1.323       .  A
C1765      C1766   1.408       .  A
C1765      H1774   1.082       .  S
C1766      C1769   1.370       .  A
O1767      C1768   1.330       .  A
C1768      C1769   1.395       .  A
C1769      H1775   1.082       .  S
O1770      C1771   1.335       .  A
C1771      C1772   1.393       .  A
C1772      H1776   1.081       .  S
C1777      C1782   1.379       .  A
C1777      C1778   1.407   1_565  A
C1777      O1783   1.323       .  A
C1778      C1779   1.407       .  A
C1778      H1789   1.082       .  S
C1779      C1788   1.366       .  A
C1779      C1780   1.379       .  A
C1780      C1781   1.407       .  A
C1780      O1786   1.323       .  A
C1781      C1782   1.407   1_545  A
C1781      H1790   1.082       .  S
C1782      C1785   1.366       .  A
O1783      C1784   1.333       .  A
C1784      C1785   1.394       .  A
C1785      H1791   1.082       .  S
O1786      C1787   1.333       .  A
C1787      C1788   1.394       .  A
C1788      H1792   1.082       .  S
C1793      C1798   1.381       .  A
C1793      C1794   1.399       .  A
C1793      O1799   1.315       .  A
C1794      C1795   1.398       .  A
C1794      H1805   1.082       .  S
C1795      C1804   1.355       .  A
C1795      C1796   1.380       .  A
C1796      C1797   1.410       .  A
C1796      O1802   1.325       .  A
C1797      C1798   1.410       .  A
C1797      H1806   1.082       .  S
C1798      C1801   1.370       .  A
O1799      C1800   1.328       .  A
C1800      C1801   1.394       .  A
C1801      H1807   1.082       .  S
O1802      C1803   1.335       .  A
C1803      C1804   1.390       .  A
C1804      H1808   1.083       .  S
C1809      C1814   1.380       .  A
C1809      C1810   1.401       .  A
C1809      O1815   1.318       .  A
C1810      C1811   1.401       .  A
C1810      H1821   1.082       .  S
C1811      C1820   1.357       .  A
C1811      C1812   1.380       .  A
C1812      C1813   1.407       .  A
C1812      O1818   1.324       .  A
C1813      C1814   1.408       .  A
C1813      H1822   1.082       .  S
C1814      C1817   1.366       .  A
O1815      C1816   1.330       .  A
C1816      C1817   1.397       .  A
C1817      H1823   1.082       .  S
O1818      C1819   1.333       .  A
C1819      C1820   1.391       .  A
C1820      H1824   1.082       .  S
C1825      C1830   1.380       .  A
C1825      C1826   1.405       .  A
C1825      O1831   1.324       .  A
C1826      C1827   1.406       .  A
C1826      H1837   1.082       .  S
C1827      C1836   1.361       .  A
C1827      C1828   1.379       .  A
C1828      C1829   1.405       .  A
C1828      O1834   1.324       .  A
C1829      C1830   1.406       .  A
C1829      H1838   1.082       .  S
C1830      C1833   1.361       .  A
O1831      C1832   1.332       .  A
C1832      C1833   1.395       .  A
C1833      H1839   1.082       .  S
O1834      C1835   1.333       .  A
C1835      C1836   1.396       .  A
C1836      H1840   1.082       .  S
C1841      C1846   1.379       .  A
C1841      C1842   1.399       .  A
C1841      O1847   1.315       .  A
C1842      C1843   1.399       .  A
C1842      H1853   1.082       .  S
C1843      C1852   1.356       .  A
C1843      C1844   1.380       .  A
C1844      C1845   1.408       .  A
C1844      O1850   1.324       .  A
C1845      C1846   1.408       .  A
C1845      H1854   1.082       .  S
C1846      C1849   1.367       .  A
O1847      C1848   1.330       .  A
C1848      C1849   1.397       .  A
C1849      H1855   1.081       .  S
O1850      C1851   1.333       .  A
C1851      C1852   1.389       .  A
C1852      H1856   1.083       .  S
C1857      C1862   1.380       .  A
C1857      C1858   1.404       .  A
C1857      O1863   1.320       .  A
C1858      C1859   1.403   1_455  A
C1858      H1869   1.082       .  S
C1859      C1868   1.362       .  A
C1859      C1860   1.379       .  A
C1860      C1861   1.409   1_655  A
C1860      O1866   1.325       .  A
C1861      C1862   1.409       .  A
C1861      H1870   1.082       .  S
C1862      C1865   1.369       .  A
O1863      C1864   1.331       .  A
C1864      C1865   1.395       .  A
C1865      H1871   1.082       .  S
O1866      C1867   1.335       .  A
C1867      C1868   1.393       .  A
C1868      H1872   1.082       .  S
C1873      C1878   1.379       .  A
C1873      C1874   1.411       .  A
C1873      O1879   1.327       .  A
C1874      C1875   1.411       .  A
C1874      H1885   1.082       .  S
C1875      C1884   1.369       .  A
C1875      C1876   1.379       .  A
C1876      C1877   1.401       .  A
C1876      O1882   1.318       .  A
C1877      C1878   1.402       .  A
C1877      H1886   1.082       .  S
C1878      C1881   1.357       .  A
O1879      C1880   1.335       .  A
C1880      C1881   1.393       .  A
C1881      H1887   1.082       .  S
O1882      C1883   1.331       .  A
C1883      C1884   1.398       .  A
C1884      H1888   1.082       .  S
C1889      C1894   1.379       .  A
C1889      C1890   1.400       .  A
C1889      O1895   1.315       .  A
C1890      C1891   1.399       .  A
C1890      H1901   1.082       .  S
C1891      C1900   1.357       .  A
C1891      C1892   1.380       .  A
C1892      C1893   1.410       .  A
C1892      O1898   1.326       .  A
C1893      C1894   1.409       .  A
C1893      H1902   1.082       .  S
C1894      C1897   1.369       .  A
O1895      C1896   1.331       .  A
C1896      C1897   1.398       .  A
C1897      H1903   1.081       .  S
O1898      C1899   1.334       .  A
C1899      C1900   1.390       .  A
C1900      H1904   1.083       .  S
C1905      C1910   1.380       .  A
C1905      C1906   1.399       .  A
C1905      O1911   1.315       .  A
C1906      C1907   1.398       .  A
C1906      H1917   1.082       .  S
C1907      C1916   1.355       .  A
C1907      C1908   1.379       .  A
C1908      C1909   1.412       .  A
C1908      O1914   1.327       .  A
C1909      C1910   1.412       .  A
C1909      H1918   1.082       .  S
C1910      C1913   1.373       .  A
O1911      C1912   1.329       .  A
C1912      C1913   1.396       .  A
C1913      H1919   1.082       .  S
O1914      C1915   1.336       .  A
C1915      C1916   1.390       .  A
C1916      H1920   1.083       .  S
C1921      C1926   1.379       .  A
C1921      C1922   1.404       .  A
C1921      O1927   1.321       .  A
C1922      C1923   1.404       .  A
C1922      H1933   1.082       .  S
C1923      C1932   1.361       .  A
C1923      C1924   1.380       .  A
C1924      C1925   1.407       .  A
C1924      O1930   1.325       .  A
C1925      C1926   1.408       .  A
C1925      H1934   1.082       .  S
C1926      C1929   1.365       .  A
O1927      C1928   1.332       .  A
C1928      C1929   1.397       .  A
C1929      H1935   1.082       .  S
O1930      C1931   1.333       .  A
C1931      C1932   1.394       .  A
C1932      H1936   1.082       .  S
C1937      C1942   1.379       .  A
C1937      C1938   1.406   1_545  A
C1937      O1943   1.322       .  A
C1938      C1939   1.405       .  A
C1938      H1949   1.082       .  S
C1939      C1948   1.364       .  A
C1939      C1940   1.379       .  A
C1940      C1941   1.412       .  A
C1940      O1946   1.327       .  A
C1941      C1942   1.411   1_565  A
C1941      H1950   1.082       .  S
C1942      C1945   1.371       .  A
O1943      C1944   1.333       .  A
C1944      C1945   1.397       .  A
C1945      H1951   1.082       .  S
O1946      C1947   1.336       .  A
C1947      C1948   1.394       .  A
C1948      H1952   1.082       .  S
C1953      C1958   1.380       .  A
C1953      C1954   1.397       .  A
C1953      O1959   1.315       .  A
C1954      C1955   1.398       .  A
C1954      H1965   1.082       .  S
C1955      C1964   1.353       .  A
C1955      C1956   1.380       .  A
C1956      C1957   1.408       .  A
C1956      O1962   1.324       .  A
C1957      C1958   1.408       .  A
C1957      H1966   1.082       .  S
C1958      C1961   1.365       .  A
O1959      C1960   1.328       .  A
C1960      C1961   1.396       .  A
C1961      H1967   1.082       .  S
O1962      C1963   1.334       .  A
C1963      C1964   1.389       .  A
C1964      H1968   1.082       .  S
C1969      C1974   1.379       .  A
C1969      C1970   1.401       .  A
C1969      O1975   1.318       .  A
C1970      C1971   1.401       .  A
C1970      H1981   1.082       .  S
C1971      C1980   1.358       .  A
C1971      C1972   1.380       .  A
C1972      C1973   1.408       .  A
C1972      O1978   1.324       .  A
C1973      C1974   1.408       .  A
C1973      H1982   1.082       .  S
C1974      C1977   1.366       .  A
O1975      C1976   1.330       .  A
C1976      C1977   1.397       .  A
C1977      H1983   1.082       .  S
O1978      C1979   1.333       .  A
C1979      C1980   1.390       .  A
C1980      H1984   1.082       .  S
C1985      C1990   1.378       .  A
C1985      C1986   1.410       .  A
C1985      O1991   1.323       .  A
C1986      C1987   1.409       .  A
C1986      H1997   1.082       .  S
C1987      C1996   1.370       .  A
C1987      C1988   1.380       .  A
C1988      C1989   1.397       .  A
C1988      O1994   1.313       .  A
C1989      C1990   1.396       .  A
C1989      H1998   1.082       .  S
C1990      C1993   1.353       .  A
O1991      C1992   1.336       .  A
C1992      C1993   1.391       .  A
C1993      H1999   1.081       .  S
O1994      C1995   1.327       .  A
C1995      C1996   1.395       .  A
C1996      H2000   1.082       .  S
C2001      C2006   1.380       .  A
C2001      C2002   1.407       .  A
C2001      O2007   1.323       .  A
C2002      C2003   1.407       .  A
C2002      H2013   1.082       .  S
C2003      C2012   1.364       .  A
C2003      C2004   1.380       .  A
C2004      C2005   1.402       .  A
C2004      O2010   1.319       .  A
C2005      C2006   1.402       .  A
C2005      H2014   1.082       .  S
C2006      C2009   1.359       .  A
O2007      C2008   1.332       .  A
C2008      C2009   1.391       .  A
C2009      H2015   1.082       .  S
O2010      C2011   1.331       .  A
C2011      C2012   1.397       .  A
C2012      H2016   1.082       .  S
C2017      C2022   1.380       .  A
C2017      C2018   1.404       .  A
C2017      O2023   1.320       .  A
C2018      C2019   1.404   1_556  A
C2018      H2029   1.082       .  S
C2019      C2028   1.362       .  A
C2019      C2020   1.380       .  A
C2020      C2021   1.406       .  A
C2020      O2026   1.322       .  A
C2021      C2022   1.405   1_554  A
C2021      H2030   1.082       .  S
C2022      C2025   1.365       .  A
O2023      C2024   1.332       .  A
C2024      C2025   1.393       .  A
C2025      H2031   1.082       .  S
O2026      C2027   1.332       .  A
C2027      C2028   1.392       .  A
C2028      H2032   1.082       .  S
C2033      C2038   1.380       .  A
C2033      C2034   1.401       .  A
C2033      O2039   1.317       .  A
C2034      C2035   1.401       .  A
C2034      H2045   1.082       .  S
C2035      C2044   1.358       .  A
C2035      C2036   1.380       .  A
C2036      C2037   1.408       .  A
C2036      O2042   1.324       .  A
C2037      C2038   1.408       .  A
C2037      H2046   1.082       .  S
C2038      C2041   1.367       .  A
O2039      C2040   1.330       .  A
C2040      C2041   1.395       .  A
C2041      H2047   1.082       .  S
O2042      C2043   1.333       .  A
C2043      C2044   1.391       .  A
C2044      H2048   1.082       .  S
C2049      C2054   1.379       .  A
C2049      C2050   1.408       .  A
C2049      O2055   1.322       .  A
C2050      C2051   1.408       .  A
C2050      H2061   1.082       .  S
C2051      C2060   1.369       .  A
C2051      C2052   1.381       .  A
C2052      C2053   1.399       .  A
C2052      O2058   1.314       .  A
C2053      C2054   1.398       .  A
C2053      H2062   1.083       .  S
C2054      C2057   1.356       .  A
O2055      C2056   1.334       .  A
C2056      C2057   1.392       .  A
C2057      H2063   1.081       .  S
O2058      C2059   1.328       .  A
C2059      C2060   1.393       .  A
C2060      H2064   1.082       .  S
C2065      C2070   1.380       .  A
C2065      C2066   1.405       .  A
C2065      O2071   1.323       .  A
C2066      C2067   1.406       .  A
C2066      H2077   1.082       .  S
C2067      C2076   1.362       .  A
C2067      C2068   1.379       .  A
C2068      C2069   1.403       .  A
C2068      O2074   1.320       .  A
C2069      C2070   1.403       .  A
C2069      H2078   1.082       .  S
C2070      C2073   1.359       .  A
O2071      C2072   1.332       .  A
C2072      C2073   1.393       .  A
C2073      H2079   1.082       .  S
O2074      C2075   1.331       .  A
C2075      C2076   1.396       .  A
C2076      H2080   1.081       .  S
C2081      C2086   1.380       .  A
C2081      C2082   1.407       .  A
C2081      O2087   1.325       .  A
C2082      C2083   1.408       .  A
C2082      H2093   1.082       .  S
C2083      C2092   1.364       .  A
C2083      C2084   1.380       .  A
C2084      C2085   1.400       .  A
C2084      O2090   1.319       .  A
C2085      C2086   1.401       .  A
C2085      H2094   1.082       .  S
C2086      C2089   1.355       .  A
O2087      C2088   1.334       .  A
C2088      C2089   1.392       .  A
C2089      H2095   1.082       .  S
O2090      C2091   1.329       .  A
C2091      C2092   1.397       .  A
C2092      H2096   1.082       .  S
C2097      C2102   1.379       .  A
C2097      C2098   1.409       .  A
C2097      O2103   1.324       .  A
C2098      C2099   1.409   1_455  A
C2098      H2109   1.082       .  S
C2099      C2108   1.368       .  A
C2099      C2100   1.380       .  A
C2100      C2101   1.403   1_655  A
C2100      O2106   1.319       .  A
C2101      C2102   1.403       .  A
C2101      H2110   1.082       .  S
C2102      C2105   1.361       .  A
O2103      C2104   1.334       .  A
C2104      C2105   1.392       .  A
C2105      H2111   1.082       .  S
O2106      C2107   1.331       .  A
C2107      C2108   1.395       .  A
C2108      H2112   1.082       .  S
C2113      C2118   1.379       .  A
C2113      C2114   1.402       .  A
C2113      O2119   1.317       .  A
C2114      C2115   1.401       .  A
C2114      H2125   1.082       .  S
C2115      C2124   1.359       .  A
C2115      C2116   1.380       .  A
C2116      C2117   1.410       .  A
C2116      O2122   1.326       .  A
C2117      C2118   1.410       .  A
C2117      H2126   1.082       .  S
C2118      C2121   1.370       .  A
O2119      C2120   1.331       .  A
C2120      C2121   1.398       .  A
C2121      H2127   1.082       .  S
O2122      C2123   1.334       .  A
C2123      C2124   1.391       .  A
C2124      H2128   1.082       .  S
C2129      C2134   1.381       .  A
C2129      C2130   1.397       .  A
C2129      O2135   1.315       .  A
C2130      C2131   1.397       .  A
C2130      H2141   1.083       .  S
C2131      C2140   1.351       .  A
C2131      C2132   1.378       .  A
C2132      C2133   1.409       .  A
C2132      O2138   1.325       .  A
C2133      C2134   1.409       .  A
C2133      H2142   1.082       .  S
C2134      C2137   1.368       .  A
O2135      C2136   1.327       .  A
C2136      C2137   1.394       .  A
C2137      H2143   1.082       .  S
O2138      C2139   1.335       .  A
C2139      C2140   1.392       .  A
C2140      H2144   1.080       .  S
C2145      C2150   1.380       .  A
C2145      C2146   1.402       .  A
C2145      O2151   1.318       .  A
C2146      C2147   1.402       .  A
C2146      H2157   1.082       .  S
C2147      C2156   1.359       .  A
C2147      C2148   1.380       .  A
C2148      C2149   1.408       .  A
C2148      O2154   1.323       .  A
C2149      C2150   1.407       .  A
C2149      H2158   1.082       .  S
C2150      C2153   1.367       .  A
O2151      C2152   1.330       .  A
C2152      C2153   1.393       .  A
C2153      H2159   1.082       .  S
O2154      C2155   1.334       .  A
C2155      C2156   1.393       .  A
C2156      H2160   1.083       .  S
C2161      C2166   1.379       .  A
C2161      C2162   1.403       .  A
C2161      O2167   1.317       .  A
C2162      C2163   1.401       .  A
C2162      H2173   1.082       .  S
C2163      C2172   1.363       .  A
C2163      C2164   1.378       .  A
C2164      C2165   1.410       .  A
C2164      O2170   1.322       .  A
C2165      C2166   1.409       .  A
C2165      H2174   1.082       .  S
C2166      C2169   1.372       .  A
O2167      C2168   1.331       .  A
C2168      C2169   1.395       .  A
C2169      H2175   1.082       .  S
O2170      C2171   1.336       .  A
C2171      C2172   1.392       .  A
C2172      H2176   1.081       .  S
C2177      C2182   1.379       .  A
C2177      C2178   1.408   1_556  A
C2177      O2183   1.322       .  A
C2178      C2179   1.406       .  A
C2178      H2189   1.082       .  S
C2179      C2188   1.368       .  A
C2179      C2180   1.379       .  A
C2180      C2181   1.406       .  A
C2180      O2186   1.320       .  A
C2181      C2182   1.405   1_554  A
C2181      H2190   1.082       .  S
C2182      C2185   1.367       .  A
O2183      C2184   1.334       .  A
C2184      C2185   1.393       .  A
C2185      H2191   1.082       .  S
O2186      C2187   1.333       .  A
C2187      C2188   1.394       .  A
C2188      H2192   1.082       .  S
C2193      C2198   1.378       .  A
C2193      C2194   1.412       .  A
C2193      O2199   1.324       .  A
C2194      C2195   1.410       .  A
C2194      H2205   1.082       .  S
C2195      C2204   1.373       .  A
C2195      C2196   1.379       .  A
C2196      C2197   1.404       .  A
C2196      O2202   1.318       .  A
C2197      C2198   1.403       .  A
C2197      H2206   1.082       .  S
C2198      C2201   1.364       .  A
O2199      C2200   1.337       .  A
C2200      C2201   1.393       .  A
C2201      H2207   1.081       .  S
O2202      C2203   1.332       .  A
C2203      C2204   1.396       .  A
C2204      H2208   1.082       .  S
C2209      C2214   1.380       .  A
C2209      C2210   1.409       .  A
C2209      O2215   1.324       .  A
C2210      C2211   1.408       .  A
C2210      H2221   1.082       .  S
C2211      C2220   1.369       .  A
C2211      C2212   1.379       .  A
C2212      C2213   1.400       .  A
C2212      O2218   1.315       .  A
C2213      C2214   1.399       .  A
C2213      H2222   1.083       .  S
C2214      C2217   1.358       .  A
O2215      C2216   1.333       .  A
C2216      C2217   1.389       .  A
C2217      H2223   1.083       .  S
O2218      C2219   1.331       .  A
C2219      C2220   1.397       .  A
C2220      H2224   1.081       .  S
C2225      C2230   1.381       .  A
C2225      C2226   1.402       .  A
C2225      O2231   1.318       .  A
C2226      C2227   1.401       .  A
C2226      H2237   1.082       .  S
C2227      C2236   1.361       .  A
C2227      C2228   1.380       .  A
C2228      C2229   1.408       .  A
C2228      O2234   1.321       .  A
C2229      C2230   1.407       .  A
C2229      H2238   1.082       .  S
C2230      C2233   1.367       .  A
O2231      C2232   1.329       .  A
C2232      C2233   1.392       .  A
C2233      H2239   1.082       .  S
O2234      C2235   1.333       .  A
C2235      C2236   1.391       .  A
C2236      H2240   1.082       .  S
C2241      C2246   1.379       .  A
C2241      C2242   1.402       .  A
C2241      O2247   1.319       .  A
C2242      C2243   1.402       .  A
C2242      H2253   1.082       .  S
C2243      C2252   1.358       .  A
C2243      C2244   1.380       .  A
C2244      C2245   1.409       .  A
C2244      O2250   1.326       .  A
C2245      C2246   1.409       .  A
C2245      H2254   1.082       .  S
C2246      C2249   1.367       .  A
O2247      C2248   1.331       .  A
C2248      C2249   1.397       .  A
C2249      H2255   1.082       .  S
O2250      C2251   1.334       .  A
C2251      C2252   1.392       .  A
C2252      H2256   1.082       .  S
C2257      C2262   1.379       .  A
C2257      C2258   1.407   1_545  A
C2257      O2263   1.322       .  A
C2258      C2259   1.406       .  A
C2258      H2269   1.082       .  S
C2259      C2268   1.366       .  A
C2259      C2260   1.379       .  A
C2260      C2261   1.408       .  A
C2260      O2266   1.324       .  A
C2261      C2262   1.407   1_565  A
C2261      H2270   1.082       .  S
C2262      C2265   1.367       .  A
O2263      C2264   1.333       .  A
C2264      C2265   1.394       .  A
C2265      H2271   1.082       .  S
O2266      C2267   1.334       .  A
C2267      C2268   1.394       .  A
C2268      H2272   1.082       .  S
C2273      C2278   1.378       .  A
C2273      C2274   1.410       .  A
C2273      O2279   1.325       .  A
C2274      C2275   1.410       .  A
C2274      H2285   1.082       .  S
C2275      C2284   1.370       .  A
C2275      C2276   1.380       .  A
C2276      C2277   1.399       .  A
C2276      O2282   1.315       .  A
C2277      C2278   1.398       .  A
C2277      H2286   1.083       .  S
C2278      C2281   1.356       .  A
O2279      C2280   1.336       .  A
C2280      C2281   1.393       .  A
C2281      H2287   1.080       .  S
O2282      C2283   1.329       .  A
C2283      C2284   1.395       .  A
C2284      H2288   1.082       .  S
C2289      C2294   1.379       .  A
C2289      C2290   1.408       .  A
C2289      O2295   1.322       .  A
C2290      C2291   1.407       .  A
C2290      H2301   1.082       .  S
C2291      C2300   1.367       .  A
C2291      C2292   1.381       .  A
C2292      C2293   1.397       .  A
C2292      O2298   1.314       .  A
C2293      C2294   1.397       .  A
C2293      H2302   1.083       .  S
C2294      C2297   1.354       .  A
O2295      C2296   1.334       .  A
C2296      C2297   1.392       .  A
C2297      H2303   1.081       .  S
O2298      C2299   1.328       .  A
C2299      C2300   1.393       .  A
C2300      H2304   1.082       .  S
C2305      C2310   1.380       .  A
C2305      C2306   1.401       .  A
C2305      O2311   1.316       .  A
C2306      C2307   1.400       .  A
C2306      H2317   1.082       .  S
C2307      C2316   1.359       .  A
C2307      C2308   1.378       .  A
C2308      C2309   1.410       .  A
C2308      O2314   1.324       .  A
C2309      C2310   1.409       .  A
C2309      H2318   1.082       .  S
C2310      C2313   1.371       .  A
O2311      C2312   1.329       .  A
C2312      C2313   1.394       .  A
C2313      H2319   1.082       .  S
O2314      C2315   1.336       .  A
C2315      C2316   1.392       .  A
C2316      H2320   1.081       .  S
C2321      C2326   1.380       .  A
C2321      C2322   1.399       .  A
C2321      O2327   1.315       .  A
C2322      C2323   1.399       .  A
C2322      H2333   1.082       .  S
C2323      C2332   1.356       .  A
C2323      C2324   1.381       .  A
C2324      C2325   1.408       .  A
C2324      O2330   1.323       .  A
C2325      C2326   1.407       .  A
C2325      H2334   1.082       .  S
C2326      C2329   1.368       .  A
O2327      C2328   1.329       .  A
C2328      C2329   1.396       .  A
C2329      H2335   1.082       .  S
O2330      C2331   1.332       .  A
C2331      C2332   1.388       .  A
C2332      H2336   1.083       .  S
C2337      C2342   1.380       .  A
C2337      C2338   1.404       .  A
C2337      O2343   1.319       .  A
C2338      C2339   1.403   1_455  A
C2338      H2349   1.082       .  S
C2339      C2348   1.362       .  A
C2339      C2340   1.380       .  A
C2340      C2341   1.403   1_655  A
C2340      O2346   1.319       .  A
C2341      C2342   1.403       .  A
C2341      H2350   1.082   1_455  S
C2342      C2345   1.362       .  A
O2343      C2344   1.331       .  A
C2344      C2345   1.391       .  A
C2345      H2351   1.082       .  S
O2346      C2347   1.331       .  A
C2347      C2348   1.393       .  A
C2348      H2352   1.082       .  S
C2353      C2358   1.379       .  A
C2353      C2354   1.403       .  A
C2353      O2359   1.321       .  A
C2354      C2355   1.404       .  A
C2354      H2365   1.082       .  S
C2355      C2364   1.360       .  A
C2355      C2356   1.380       .  A
C2356      C2357   1.408       .  A
C2356      O2362   1.325       .  A
C2357      C2358   1.409       .  A
C2357      H2366   1.082       .  S
C2358      C2361   1.366       .  A
O2359      C2360   1.332       .  A
C2360      C2361   1.398       .  A
C2361      H2367   1.082       .  S
O2362      C2363   1.334       .  A
C2363      C2364   1.392       .  A
C2364      H2368   1.082       .  S
C2369      C2374   1.381       .  A
C2369      C2370   1.401       .  A
C2369      O2375   1.317       .  A
C2370      C2371   1.400       .  A
C2370      H2381   1.082       .  S
C2371      C2380   1.358       .  A
C2371      C2372   1.380       .  A
C2372      C2373   1.408       .  A
C2372      O2378   1.323       .  A
C2373      C2374   1.408       .  A
C2373      H2382   1.082       .  S
C2374      C2377   1.369       .  A
O2375      C2376   1.329       .  A
C2376      C2377   1.393       .  A
C2377      H2383   1.082       .  S
O2378      C2379   1.334       .  A
C2379      C2380   1.391       .  A
C2380      H2384   1.083       .  S
C2385      C2390   1.380       .  A
C2385      C2386   1.404       .  A
C2385      O2391   1.318       .  A
C2386      C2387   1.402       .  A
C2386      H2397   1.082       .  S
C2387      C2396   1.363       .  A
C2387      C2388   1.379       .  A
C2388      C2389   1.409       .  A
C2388      O2394   1.323       .  A
C2389      C2390   1.408       .  A
C2389      H2398   1.082       .  S
C2390      C2393   1.370       .  A
O2391      C2392   1.331       .  A
C2392      C2393   1.393       .  A
C2393      H2399   1.082       .  S
O2394      C2395   1.335       .  A
C2395      C2396   1.392       .  A
C2396      H2400   1.082       .  S
C2401      C2406   1.380       .  A
C2401      C2402   1.407       .  A
C2401      O2407   1.325       .  A
C2402      C2403   1.408       .  A
C2402      H2413   1.082       .  S
C2403      C2412   1.364       .  A
C2403      C2404   1.379       .  A
C2404      C2405   1.402       .  A
C2404      O2410   1.320       .  A
C2405      C2406   1.403       .  A
C2405      H2414   1.082       .  S
C2406      C2409   1.358       .  A
O2407      C2408   1.333       .  A
C2408      C2409   1.391       .  A
C2409      H2415   1.083       .  S
O2410      C2411   1.331       .  A
C2411      C2412   1.397       .  A
C2412      H2416   1.082       .  S
C2417      C2422   1.379       .  A
C2417      C2418   1.410       .  A
C2417      O2423   1.324       .  A
C2418      C2419   1.409   1_556  A
C2418      H2429   1.082       .  S
C2419      C2428   1.370       .  A
C2419      C2420   1.379       .  A
C2420      C2421   1.406   1_554  A
C2420      O2426   1.321       .  A
C2421      C2422   1.405       .  A
C2421      H2430   1.082       .  S
C2422      C2425   1.366       .  A
O2423      C2424   1.335       .  A
C2424      C2425   1.394       .  A
C2425      H2431   1.082       .  S
O2426      C2427   1.333       .  A
C2427      C2428   1.395       .  A
C2428      H2432   1.082       .  S
C2433      C2438   1.380       .  A
C2433      C2434   1.401       .  A
C2433      O2439   1.317       .  A
C2434      C2435   1.401       .  A
C2434      H2445   1.082       .  S
C2435      C2444   1.358       .  A
C2435      C2436   1.378       .  A
C2436      C2437   1.408       .  A
C2436      O2442   1.323       .  A
C2437      C2438   1.408       .  A
C2437      H2446   1.082       .  S
C2438      C2441   1.367       .  A
O2439      C2440   1.330       .  A
C2440      C2441   1.394       .  A
C2441      H2447   1.082       .  S
O2442      C2443   1.335       .  A
C2443      C2444   1.393       .  A
C2444      H2448   1.080       .  S
C2449      C2454   1.380       .  A
C2449      C2450   1.399       .  A
C2449      O2455   1.315       .  A
C2450      C2451   1.399       .  A
C2450      H2461   1.082       .  S
C2451      C2460   1.356       .  A
C2451      C2452   1.378       .  A
C2452      C2453   1.409       .  A
C2452      O2458   1.324       .  A
C2453      C2454   1.409       .  A
C2453      H2462   1.082       .  S
C2454      C2457   1.369       .  A
O2455      C2456   1.329       .  A
C2456      C2457   1.394       .  A
C2457      H2463   1.082       .  S
O2458      C2459   1.335       .  A
C2459      C2460   1.393       .  A
C2460      H2464   1.081       .  S
C2465      C2470   1.379       .  A
C2465      C2466   1.403       .  A
C2465      O2471   1.317       .  A
C2466      C2467   1.402       .  A
C2466      H2477   1.082       .  S
C2467      C2476   1.361       .  A
C2467      C2468   1.380       .  A
C2468      C2469   1.408       .  A
C2468      O2474   1.323       .  A
C2469      C2470   1.408       .  A
C2469      H2478   1.082       .  S
C2470      C2473   1.368       .  A
O2471      C2472   1.332       .  A
C2472      C2473   1.397       .  A
C2473      H2479   1.082       .  S
O2474      C2475   1.333       .  A
C2475      C2476   1.390       .  A
C2476      H2480   1.083       .  S
C2481      C2486   1.380       .  A
C2481      C2482   1.407       .  A
C2481      O2487   1.325       .  A
C2482      C2483   1.408       .  A
C2482      H2493   1.082       .  S
C2483      C2492   1.364       .  A
C2483      C2484   1.380       .  A
C2484      C2485   1.399       .  A
C2484      O2490   1.317       .  A
C2485      C2486   1.400       .  A
C2485      H2494   1.082       .  S
C2486      C2489   1.355       .  A
O2487      C2488   1.333       .  A
C2488      C2489   1.390       .  A
C2489      H2495   1.082       .  S
O2490      C2491   1.329       .  A
C2491      C2492   1.396       .  A
C2492      H2496   1.082       .  S
C2497      C2502   1.380       .  A
C2497      C2498   1.406       .  A
C2497      O2503   1.321       .  A
C2498      C2499   1.406       .  A
C2498      H2509   1.082       .  S
C2499      C2508   1.365       .  A
C2499      C2500   1.380       .  A
C2500      C2501   1.406       .  A
C2500      O2506   1.322       .  A
C2501      C2502   1.405       .  A
C2501      H2510   1.082       .  S
C2502      C2505   1.364       .  A
O2503      C2504   1.332       .  A
C2504      C2505   1.393       .  A
C2505      H2511   1.082       .  S
O2506      C2507   1.333       .  A
C2507      C2508   1.394       .  A
C2508      H2512   1.082       .  S
C2513      C2518   1.380       .  A
C2513      C2514   1.401       .  A
C2513      O2519   1.317       .  A
C2514      C2515   1.401       .  A
C2514      H2525   1.082       .  S
C2515      C2524   1.358       .  A
C2515      C2516   1.379       .  A
C2516      C2517   1.410       .  A
C2516      O2522   1.325       .  A
C2517      C2518   1.409       .  A
C2517      H2526   1.082       .  S
C2518      C2521   1.370       .  A
O2519      C2520   1.330       .  A
C2520      C2521   1.394       .  A
C2521      H2527   1.082       .  S
O2522      C2523   1.335       .  A
C2523      C2524   1.392       .  A
C2524      H2528   1.083       .  S
C2529      C2534   1.380       .  A
C2529      C2530   1.402       .  A
C2529      O2535   1.319       .  A
C2530      C2531   1.402       .  A
C2530      H2541   1.082       .  S
C2531      C2540   1.358       .  A
C2531      C2532   1.380       .  A
C2532      C2533   1.408       .  A
C2532      O2538   1.324       .  A
C2533      C2534   1.407       .  A
C2533      H2542   1.082       .  S
C2534      C2537   1.367       .  A
O2535      C2536   1.331       .  A
C2536      C2537   1.393       .  A
C2537      H2543   1.082       .  S
O2538      C2539   1.334       .  A
C2539      C2540   1.393       .  A
C2540      H2544   1.083       .  S
C2545      C2550   1.380       .  A
C2545      C2546   1.410       .  A
C2545      O2551   1.327       .  A
C2546      C2547   1.410       .  A
C2546      H2557   1.082       .  S
C2547      C2556   1.368       .  A
C2547      C2548   1.379       .  A
C2548      C2549   1.402       .  A
C2548      O2554   1.319       .  A
C2549      C2550   1.402       .  A
C2549      H2558   1.082       .  S
C2550      C2553   1.359       .  A
O2551      C2552   1.335       .  A
C2552      C2553   1.392       .  A
C2553      H2559   1.082       .  S
O2554      C2555   1.331       .  A
C2555      C2556   1.398       .  A
C2556      H2560   1.082       .  S
C2561      C2566   1.379       .  A
C2561      C2562   1.413       .  A
C2561      O2567   1.328       .  A
C2562      C2563   1.413       .  A
C2562      H2573   1.082       .  S
C2563      C2572   1.373       .  A
C2563      C2564   1.379       .  A
C2564      C2565   1.397       .  A
C2564      O2570   1.313       .  A
C2565      C2566   1.396       .  A
C2565      H2574   1.083       .  S
C2566      C2569   1.353       .  A
O2567      C2568   1.336       .  A
C2568      C2569   1.389       .  A
C2569      H2575   1.082       .  S
O2570      C2571   1.329       .  A
C2571      C2572   1.399       .  A
C2572      H2576   1.081       .  S
C2577      C2582   1.380       .  A
C2577      C2578   1.405       .  A
C2577      O2583   1.322       .  A
C2578      C2579   1.405       .  A
C2578      H2589   1.082       .  S
C2579      C2588   1.363       .  A
C2579      C2580   1.379       .  A
C2580      C2581   1.409       .  A
C2580      O2586   1.325       .  A
C2581      C2582   1.409       .  A
C2581      H2590   1.082       .  S
C2582      C2585   1.368       .  A
O2583      C2584   1.333       .  A
C2584      C2585   1.395       .  A
C2585      H2591   1.082       .  S
O2586      C2587   1.334       .  A
C2587      C2588   1.393       .  A
C2588      H2592   1.082       .  S
C2593      C2598   1.379       .  A
C2593      C2594   1.400       .  A
C2593      O2599   1.314       .  A
C2594      C2595   1.398       .  A
C2594      H2605   1.083       .  S
C2595      C2604   1.359       .  A
C2595      C2596   1.381       .  A
C2596      C2597   1.407       .  A
C2596      O2602   1.321       .  A
C2597      C2598   1.406       .  A
C2597      H2606   1.082       .  S
C2598      C2601   1.367       .  A
O2599      C2600   1.330       .  A
C2600      C2601   1.395       .  A
C2601      H2607   1.082       .  S
O2602      C2603   1.331       .  A
C2603      C2604   1.388       .  A
C2604      H2608   1.083       .  S
C2609      C2614   1.379       .  A
C2609      C2610   1.409       .  A
C2609      O2615   1.326       .  A
C2610      C2611   1.409       .  A
C2610      H2621   1.082       .  S
C2611      C2620   1.367       .  A
C2611      C2612   1.379       .  A
C2612      C2613   1.404       .  A
C2612      O2618   1.321       .  A
C2613      C2614   1.404       .  A
C2613      H2622   1.082       .  S
C2614      C2617   1.360       .  A
O2615      C2616   1.334       .  A
C2616      C2617   1.393       .  A
C2617      H2623   1.082       .  S
O2618      C2619   1.332       .  A
C2619      C2620   1.397       .  A
C2620      H2624   1.082       .  S
C2625      C2630   1.380       .  A
C2625      C2626   1.408       .  A
C2625      O2631   1.325       .  A
C2626      C2627   1.409       .  A
C2626      H2637   1.082       .  S
C2627      C2636   1.365       .  A
C2627      C2628   1.379       .  A
C2628      C2629   1.404       .  A
C2628      O2634   1.321       .  A
C2629      C2630   1.404       .  A
C2629      H2638   1.082       .  S
C2630      C2633   1.360       .  A
O2631      C2632   1.334       .  A
C2632      C2633   1.393       .  A
C2633      H2639   1.082       .  S
O2634      C2635   1.332       .  A
C2635      C2636   1.397       .  A
C2636      H2640   1.082       .  S
C2641      C2646   1.379       .  A
C2641      C2642   1.410       .  A
C2641      O2647   1.326       .  A
C2642      C2643   1.410       .  A
C2642      H2653   1.082       .  S
C2643      C2652   1.369       .  A
C2643      C2644   1.381       .  A
C2644      C2645   1.398       .  A
C2644      O2650   1.316       .  A
C2645      C2646   1.399       .  A
C2645      H2654   1.082       .  S
C2646      C2649   1.354       .  A
O2647      C2648   1.336       .  A
C2648      C2649   1.392       .  A
C2649      H2655   1.083       .  S
O2650      C2651   1.328       .  A
C2651      C2652   1.394       .  A
C2652      H2656   1.082       .  S
C2657      C2662   1.379       .  A
C2657      C2658   1.408       .  A
C2657      O2663   1.326       .  A
C2658      C2659   1.409       .  A
C2658      H2669   1.082       .  S
C2659      C2668   1.365       .  A
C2659      C2660   1.380       .  A
C2660      C2661   1.402       .  A
C2660      O2666   1.321       .  A
C2661      C2662   1.403       .  A
C2661      H2670   1.082       .  S
C2662      C2665   1.359       .  A
O2663      C2664   1.334       .  A
C2664      C2665   1.393       .  A
C2665      H2671   1.082       .  S
O2666      C2667   1.331       .  A
C2667      C2668   1.395       .  A
C2668      H2672   1.082       .  S
C2673      C2678   1.379       .  A
C2673      C2674   1.404       .  A
C2673      O2679   1.319       .  A
C2674      C2675   1.403       .  A
C2674      H2685   1.082       .  S
C2675      C2684   1.361       .  A
C2675      C2676   1.380       .  A
C2676      C2677   1.407       .  A
C2676      O2682   1.323       .  A
C2677      C2678   1.407       .  A
C2677      H2686   1.082       .  S
C2678      C2681   1.367       .  A
O2679      C2680   1.332       .  A
C2680      C2681   1.395       .  A
C2681      H2687   1.082       .  S
O2682      C2683   1.333       .  A
C2683      C2684   1.392       .  A
C2684      H2688   1.082       .  S
C2689      C2694   1.380       .  A
C2689      C2690   1.411       .  A
C2689      O2695   1.326       .  A
C2690      C2691   1.411       .  A
C2690      H2701   1.082       .  S
C2691      C2700   1.371       .  A
C2691      C2692   1.379       .  A
C2692      C2693   1.399       .  A
C2692      O2698   1.314       .  A
C2693      C2694   1.398       .  A
C2693      H2702   1.082       .  S
C2694      C2697   1.356       .  A
O2695      C2696   1.335       .  A
C2696      C2697   1.389       .  A
C2697      H2703   1.082       .  S
O2698      C2699   1.329       .  A
C2699      C2700   1.397       .  A
C2700      H2704   1.082       .  S
C2705      C2710   1.380       .  A
C2705      C2706   1.402       .  A
C2705      O2711   1.316       .  A
C2706      C2707   1.401       .  A
C2706      H2717   1.082       .  S
C2707      C2716   1.360       .  A
C2707      C2708   1.379       .  A
C2708      C2709   1.408       .  A
C2708      O2714   1.322       .  A
C2709      C2710   1.407       .  A
C2709      H2718   1.082       .  S
C2710      C2713   1.369       .  A
O2711      C2712   1.330       .  A
C2712      C2713   1.393       .  A
C2713      H2719   1.082       .  S
O2714      C2715   1.334       .  A
C2715      C2716   1.392       .  A
C2716      H2720   1.082       .  S
C2721      C2726   1.380       .  A
C2721      C2722   1.406       .  A
C2721      O2727   1.321       .  A
C2722      C2723   1.405       .  A
C2722      H2733   1.082       .  S
C2723      C2732   1.364       .  A
C2723      C2724   1.380       .  A
C2724      C2725   1.406       .  A
C2724      O2730   1.322       .  A
C2725      C2726   1.406       .  A
C2725      H2734   1.082       .  S
C2726      C2729   1.365       .  A
O2727      C2728   1.332       .  A
C2728      C2729   1.394       .  A
C2729      H2735   1.082       .  S
O2730      C2731   1.333       .  A
C2731      C2732   1.393       .  A
C2732      H2736   1.082       .  S
C2737      C2742   1.379       .  A
C2737      C2738   1.399       .  A
C2737      O2743   1.314       .  A
C2738      C2739   1.398       .  A
C2738      H2749   1.083       .  S
C2739      C2748   1.357       .  A
C2739      C2740   1.380       .  A
C2740      C2741   1.412       .  A
C2740      O2746   1.326       .  A
C2741      C2742   1.411       .  A
C2741      H2750   1.082       .  S
C2742      C2745   1.373       .  A
O2743      C2744   1.330       .  A
C2744      C2745   1.398       .  A
C2745      H2751   1.082       .  S
O2746      C2747   1.335       .  A
C2747      C2748   1.389       .  A
C2748      H2752   1.083       .  S
C2753      C2758   1.380       .  A
C2753      C2754   1.410       .  A
C2753      O2759   1.325       .  A
C2754      C2755   1.409       .  A
C2754      H2765   1.082       .  S
C2755      C2764   1.370       .  A
C2755      C2756   1.379       .  A
C2756      C2757   1.400       .  A
C2756      O2762   1.315       .  A
C2757      C2758   1.399       .  A
C2757      H2766   1.082       .  S
C2758      C2761   1.358       .  A
O2759      C2760   1.334       .  A
C2760      C2761   1.390       .  A
C2761      H2767   1.082       .  S
O2762      C2763   1.330       .  A
C2763      C2764   1.397       .  A
C2764      H2768   1.082       .  S
C2769      C2774   1.380       .  A
C2769      C2770   1.410       .  A
C2769      O2775   1.326       .  A
C2770      C2771   1.410       .  A
C2770      H2781   1.082       .  S
C2771      C2780   1.370       .  A
C2771      C2772   1.381       .  A
C2772      C2773   1.399       .  A
C2772      O2778   1.316       .  A
C2773      C2774   1.399       .  A
C2773      H2782   1.082       .  S
C2774      C2777   1.355       .  A
O2775      C2776   1.335       .  A
C2776      C2777   1.391       .  A
C2777      H2783   1.083       .  S
O2778      C2779   1.329       .  A
C2779      C2780   1.394       .  A
C2780      H2784   1.082       .  S
C2785      C2790   1.380       .  A
C2785      C2786   1.410       .  A
C2785      O2791   1.325       .  A
C2786      C2787   1.409       .  A
C2786      H2797   1.082       .  S
C2787      C2796   1.369       .  A
C2787      C2788   1.379       .  A
C2788      C2789   1.400       .  A
C2788      O2794   1.316       .  A
C2789      C2790   1.400       .  A
C2789      H2798   1.082       .  S
C2790      C2793   1.357       .  A
O2791      C2792   1.334       .  A
C2792      C2793   1.391       .  A
C2793      H2799   1.082       .  S
O2794      C2795   1.330       .  A
C2795      C2796   1.396       .  A
C2796      H2800   1.082       .  S
C2801      C2806   1.380       .  A
C2801      C2802   1.406       .  A
C2801      O2807   1.322       .  A
C2802      C2803   1.406       .  A
C2802      H2813   1.082       .  S
C2803      C2812   1.364       .  A
C2803      C2804   1.379       .  A
C2804      C2805   1.408       .  A
C2804      O2810   1.324       .  A
C2805      C2806   1.408       .  A
C2805      H2814   1.082       .  S
C2806      C2809   1.367       .  A
O2807      C2808   1.333       .  A
C2808      C2809   1.395       .  A
C2809      H2815   1.082       .  S
O2810      C2811   1.334       .  A
C2811      C2812   1.393       .  A
C2812      H2816   1.082       .  S
C2817      C2822   1.379       .  A
C2817      C2818   1.409       .  A
C2817      O2823   1.323       .  A
C2818      C2819   1.408       .  A
C2818      H2829   1.082       .  S
C2819      C2828   1.371       .  A
C2819      C2820   1.379       .  A
C2820      C2821   1.404       .  A
C2820      O2826   1.318       .  A
C2821      C2822   1.403       .  A
C2821      H2830   1.082       .  S
C2822      C2825   1.363       .  A
O2823      C2824   1.335       .  A
C2824      C2825   1.393       .  A
C2825      H2831   1.082       .  S
O2826      C2827   1.332       .  A
C2827      C2828   1.394       .  A
C2828      H2832   1.082       .  S
C2833      C2838   1.380       .  A
C2833      C2834   1.403       .  A
C2833      O2839   1.316       .  A
C2834      C2835   1.401       .  A
C2834      H2845   1.082       .  S
C2835      C2844   1.362       .  A
C2835      C2836   1.379       .  A
C2836      C2837   1.408       .  A
C2836      O2842   1.321       .  A
C2837      C2838   1.406       .  A
C2837      H2846   1.082       .  S
C2838      C2841   1.369       .  A
O2839      C2840   1.331       .  A
C2840      C2841   1.393       .  A
C2841      H2847   1.082       .  S
O2842      C2843   1.334       .  A
C2843      C2844   1.393       .  A
C2844      H2848   1.081       .  S
C2849      C2854   1.380       .  A
C2849      C2850   1.408       .  A
C2849      O2855   1.325       .  A
C2850      C2851   1.409       .  A
C2850      H2861   1.082       .  S
C2851      C2860   1.366       .  A
C2851      C2852   1.379       .  A
C2852      C2853   1.404       .  A
C2852      O2858   1.321       .  A
C2853      C2854   1.404       .  A
C2853      H2862   1.082       .  S
C2854      C2857   1.361       .  A
O2855      C2856   1.334       .  A
C2856      C2857   1.394       .  A
C2857      H2863   1.082       .  S
O2858      C2859   1.332       .  A
C2859      C2860   1.397       .  A
C2860      H2864   1.082       .  S
C2865      C2870   1.378       .  A
C2865      C2866   1.410       .  A
C2865      O2871   1.322       .  A
C2866      C2867   1.408       .  A
C2866      H2877   1.082       .  S
C2867      C2876   1.370       .  A
C2867      C2868   1.380       .  A
C2868      C2869   1.399       .  A
C2868      O2874   1.314       .  A
C2869      C2870   1.398       .  A
C2869      H2878   1.082       .  S
C2870      C2873   1.357       .  A
O2871      C2872   1.335       .  A
C2872      C2873   1.391       .  A
C2873      H2879   1.081       .  S
O2874      C2875   1.328       .  A
C2875      C2876   1.394       .  A
C2876      H2880   1.082       .  S
C2881      C2886   1.379       .  A
C2881      C2882   1.405       .  A
C2881      O2887   1.321       .  A
C2882      C2883   1.405   1_545  A
C2882      H2893   1.082       .  S
C2883      C2892   1.364       .  A
C2883      C2884   1.379       .  A
C2884      C2885   1.411   1_565  A
C2884      O2890   1.326       .  A
C2885      C2886   1.411       .  A
C2885      H2894   1.082       .  S
C2886      C2889   1.371       .  A
O2887      C2888   1.332       .  A
C2888      C2889   1.397       .  A
C2889      H2895   1.082       .  S
O2890      C2891   1.336       .  A
C2891      C2892   1.393       .  A
C2892      H2896   1.082       .  S
C2897      C2902   1.380       .  A
C2897      C2898   1.401       .  A
C2897      O2903   1.315       .  A
C2898      C2899   1.399       .  A
C2898      H2909   1.082       .  S
C2899      C2908   1.359       .  A
C2899      C2900   1.378       .  A
C2900      C2901   1.412       .  A
C2900      O2906   1.325       .  A
C2901      C2902   1.411       .  A
C2901      H2910   1.082       .  S
C2902      C2905   1.374       .  A
O2903      C2904   1.330       .  A
C2904      C2905   1.396       .  A
C2905      H2911   1.082       .  S
O2906      C2907   1.336       .  A
C2907      C2908   1.391       .  A
C2908      H2912   1.082       .  S
C2913      C2918   1.379       .  A
C2913      C2914   1.400       .  A
C2913      O2919   1.316       .  A
C2914      C2915   1.400       .  A
C2914      H2925   1.082       .  S
C2915      C2924   1.357       .  A
C2915      C2916   1.380       .  A
C2916      C2917   1.411       .  A
C2916      O2922   1.327       .  A
C2917      C2918   1.410       .  A
C2917      H2926   1.082       .  S
C2918      C2921   1.369       .  A
O2919      C2920   1.331       .  A
C2920      C2921   1.398       .  A
C2921      H2927   1.081       .  S
O2922      C2923   1.335       .  A
C2923      C2924   1.390       .  A
C2924      H2928   1.083       .  S
C2929      C2934   1.379       .  A
C2929      C2930   1.408       .  A
C2929      O2935   1.324       .  A
C2930      C2931   1.408       .  A
C2930      H2941   1.084       .  S
C2931      C2940   1.368       .  A
C2931      C2932   1.380       .  A
C2932      C2933   1.403       .  A
C2932      O2938   1.319       .  A
C2933      C2934   1.402       .  A
C2933      H2942   1.084       .  S
C2934      C2937   1.360       .  A
O2935      C2936   1.335       .  A
C2936      C2937   1.393       .  A
C2937      H2943   1.082       .  S
O2938      C2939   1.331       .  A
C2939      C2940   1.393       .  A
C2940      H2944   1.083       .  S
C2945      C2950   1.379       .  A
C2945      C2946   1.401       .  A
C2945      O2951   1.316       .  A
C2946      C2947   1.400       .  A
C2946      H2957   1.082       .  S
C2947      C2956   1.359       .  A
C2947      C2948   1.377       .  A
C2948      C2949   1.416       .  A
C2948      O2954   1.329       .  A
C2949      C2950   1.415       .  A
C2949      H2958   1.082       .  S
C2950      C2953   1.378       .  A
O2951      C2952   1.330       .  A
C2952      C2953   1.399       .  A
C2953      H2959   1.082       .  S
O2954      C2955   1.340       .  A
C2955      C2956   1.393       .  A
C2956      H2960   1.081       .  S
C2961      C2966   1.379       .  A
C2961      C2962   1.410       .  A
C2961      O2967   1.327       .  A
C2962      C2963   1.410   1_556  A
C2962      H2973   1.082       .  S
C2963      C2972   1.369       .  A
C2963      C2964   1.379       .  A
C2964      C2965   1.408   1_554  A
C2964      O2970   1.325       .  A
C2965      C2966   1.408       .  A
C2965      H2974   1.082       .  S
C2966      C2969   1.367       .  A
O2967      C2968   1.335       .  A
C2968      C2969   1.396       .  A
C2969      H2975   1.082       .  S
O2970      C2971   1.334       .  A
C2971      C2972   1.396       .  A
C2972      H2976   1.082       .  S
C2977      C2982   1.378       .  A
C2977      C2978   1.410       .  A
C2977      O2983   1.323       .  A
C2978      C2979   1.408       .  A
C2978      H2989   1.082       .  S
C2979      C2988   1.371       .  A
C2979      C2980   1.380       .  A
C2980      C2981   1.402       .  A
C2980      O2986   1.316       .  A
C2981      C2982   1.401       .  A
C2981      H2990   1.082       .  S
C2982      C2985   1.361       .  A
O2983      C2984   1.335       .  A
C2984      C2985   1.392       .  A
C2985      H2991   1.081       .  S
O2986      C2987   1.330       .  A
C2987      C2988   1.394       .  A
C2988      H2992   1.082       .  S
C2993      C2998   1.380       .  A
C2993      C2994   1.401       .  A
C2993      O2999   1.316       .  A
C2994      C2995   1.400       .  A
C2994      H3005   1.082       .  S
C2995      C3004   1.359       .  A
C2995      C2996   1.378       .  A
C2996      C2997   1.412       .  A
C2996      O3002   1.325       .  A
C2997      C2998   1.411       .  A
C2997      H3006   1.082       .  S
C2998      C3001   1.373       .  A
O2999      C3000   1.330       .  A
C3000      C3001   1.396       .  A
C3001      H3007   1.082       .  S
O3002      C3003   1.337       .  A
C3003      C3004   1.392       .  A
C3004      H3008   1.081       .  S
C3009      C3014   1.380       .  A
C3009      C3010   1.399       .  A
C3009      O3015   1.317       .  A
C3010      C3011   1.399       .  A
C3010      H3021   1.082       .  S
C3011      C3020   1.355       .  A
C3011      C3012   1.380       .  A
C3012      C3013   1.409       .  A
C3012      O3018   1.325       .  A
C3013      C3014   1.410       .  A
C3013      H3022   1.082       .  S
C3014      C3017   1.366       .  A
O3015      C3016   1.329       .  A
C3016      C3017   1.398       .  A
C3017      H3023   1.082       .  S
O3018      C3019   1.334       .  A
C3019      C3020   1.390       .  A
C3020      H3024   1.082       .  S
C3025      C3030   1.379       .  A
C3025      C3026   1.411       .  A
C3025      O3031   1.326       .  A
C3026      C3027   1.410       .  A
C3026      H3037   1.082       .  S
C3027      C3036   1.370       .  A
C3027      C3028   1.381       .  A
C3028      C3029   1.397       .  A
C3028      O3034   1.315       .  A
C3029      C3030   1.397       .  A
C3029      H3038   1.083       .  S
C3030      C3033   1.353       .  A
O3031      C3032   1.336       .  A
C3032      C3033   1.392       .  A
C3033      H3039   1.083       .  S
O3034      C3035   1.327       .  A
C3035      C3036   1.394       .  A
C3036      H3040   1.082       .  S
C3041      C3046   1.380       .  A
C3041      C3042   1.410       .  A
C3041      O3047   1.326       .  A
C3042      C3043   1.410       .  A
C3042      H3053   1.082       .  S
C3043      C3052   1.369       .  A
C3043      C3044   1.380       .  A
C3044      C3045   1.399       .  A
C3044      O3050   1.315       .  A
C3045      C3046   1.398       .  A
C3045      H3054   1.082       .  S
C3046      C3049   1.354       .  A
O3047      C3048   1.334       .  A
C3048      C3049   1.391       .  A
C3049      H3055   1.082       .  S
O3050      C3051   1.329       .  A
C3051      C3052   1.396       .  A
C3052      H3056   1.082       .  S
C3057      C3062   1.379       .  A
C3057      C3058   1.408       .  A
C3057      O3063   1.322       .  A
C3058      C3059   1.407       .  A
C3058      H3069   1.082       .  S
C3059      C3068   1.369       .  A
C3059      C3060   1.380       .  A
C3060      C3061   1.404       .  A
C3060      O3066   1.318       .  A
C3061      C3062   1.403       .  A
C3061      H3070   1.082       .  S
C3062      C3065   1.364       .  A
O3063      C3064   1.334       .  A
C3064      C3065   1.392       .  A
C3065      H3071   1.082       .  S
O3066      C3067   1.331       .  A
C3067      C3068   1.394       .  A
C3068      H3072   1.082       .  S
C3073      C3078   1.380       .  A
C3073      C3074   1.411       .  A
C3073      O3079   1.326       .  A
C3074      C3075   1.411       .  A
C3074      H3085   1.082       .  S
C3075      C3084   1.371       .  A
C3075      C3076   1.379       .  A
C3076      C3077   1.400       .  A
C3076      O3082   1.315       .  A
C3077      C3078   1.399       .  A
C3077      H3086   1.082       .  S
C3078      C3081   1.357       .  A
O3079      C3080   1.335       .  A
C3080      C3081   1.389       .  A
C3081      H3087   1.083       .  S
O3082      C3083   1.330       .  A
C3083      C3084   1.399       .  A
C3084      H3088   1.081       .  S
C3089      C3094   1.380       .  A
C3089      C3090   1.407       .  A
C3089      O3095   1.323       .  A
C3090      C3091   1.407       .  A
C3090      H3101   1.082       .  S
C3091      C3100   1.365       .  A
C3091      C3092   1.379       .  A
C3092      C3093   1.401       .  A
C3092      O3098   1.316       .  A
C3093      C3094   1.400       .  A
C3093      H3102   1.082       .  S
C3094      C3097   1.359       .  A
O3095      C3096   1.332       .  A
C3096      C3097   1.389       .  A
C3097      H3103   1.083       .  S
O3098      C3099   1.331       .  A
C3099      C3100   1.397       .  A
C3100      H3104   1.081       .  S
C3105      C3110   1.380       .  A
C3105      C3106   1.399       .  A
C3105      O3111   1.316       .  A
C3106      C3107   1.399       .  A
C3106      H3117   1.082       .  S
C3107      C3116   1.355       .  A
C3107      C3108   1.380       .  A
C3108      C3109   1.409       .  A
C3108      O3114   1.325       .  A
C3109      C3110   1.409       .  A
C3109      H3118   1.082       .  S
C3110      C3113   1.370       .  A
O3111      C3112   1.329       .  A
C3112      C3113   1.394       .  A
C3113      H3119   1.082       .  S
O3114      C3115   1.334       .  A
C3115      C3116   1.391       .  A
C3116      H3120   1.083       .  S
C3121      C3126   1.380       .  A
C3121      C3122   1.403       .  A
C3121      O3127   1.316       .  A
C3122      C3123   1.401       .  A
C3122      H3133   1.082       .  S
C3123      C3132   1.364       .  A
C3123      C3124   1.379       .  A
C3124      C3125   1.408       .  A
C3124      O3130   1.319       .  A
C3125      C3126   1.405       .  A
C3125      H3134   1.082       .  S
C3126      C3129   1.369       .  A
O3127      C3128   1.331       .  A
C3128      C3129   1.393       .  A
C3129      H3135   1.082       .  S
O3130      C3131   1.334       .  A
C3131      C3132   1.392       .  A
C3132      H3136   1.082       .  S
C3137      C3142   1.379       .  A
C3137      C3138   1.407       .  A
C3137      O3143   1.323       .  A
C3138      C3139   1.407       .  A
C3138      H3149   1.082       .  S
C3139      C3148   1.366       .  A
C3139      C3140   1.380       .  A
C3140      C3141   1.405       .  A
C3140      O3146   1.321       .  A
C3141      C3142   1.405       .  A
C3141      H3150   1.082       .  S
C3142      C3145   1.363       .  A
O3143      C3144   1.334       .  A
C3144      C3145   1.393       .  A
C3145      H3151   1.082       .  S
O3146      C3147   1.332       .  A
C3147      C3148   1.395       .  A
C3148      H3152   1.082       .  S
C3153      C3158   1.379       .  A
C3153      C3154   1.411       .  A
C3153      O3159   1.327       .  A
C3154      C3155   1.411       .  A
C3154      H3165   1.082       .  S
C3155      C3164   1.369       .  A
C3155      C3156   1.380       .  A
C3156      C3157   1.401       .  A
C3156      O3162   1.318       .  A
C3157      C3158   1.401       .  A
C3157      H3166   1.082       .  S
C3158      C3161   1.357       .  A
O3159      C3160   1.335       .  A
C3160      C3161   1.391       .  A
C3161      H3167   1.082       .  S
O3162      C3163   1.330       .  A
C3163      C3164   1.397       .  A
C3164      H3168   1.082       .  S
C3169      C3174   1.381       .  A
C3169      C3170   1.400       .  A
C3169      O3175   1.318       .  A
C3170      C3171   1.400       .  A
C3170      H3181   1.083       .  S
C3171      C3180   1.355       .  A
C3171      C3172   1.379       .  A
C3172      C3173   1.407       .  A
C3172      O3178   1.324       .  A
C3173      C3174   1.408       .  A
C3173      H3182   1.082       .  S
C3174      C3177   1.366       .  A
O3175      C3176   1.329       .  A
C3176      C3177   1.392       .  A
C3177      H3183   1.082       .  S
O3178      C3179   1.334       .  A
C3179      C3180   1.393       .  A
C3180      H3184   1.083       .  S
C3185      C3190   1.380       .  A
C3185      C3186   1.399       .  A
C3185      O3191   1.316       .  A
C3186      C3187   1.399       .  A
C3186      H3197   1.083       .  S
C3187      C3196   1.355       .  A
C3187      C3188   1.379       .  A
C3188      C3189   1.412       .  A
C3188      O3194   1.328       .  A
C3189      C3190   1.412       .  A
C3189      H3198   1.082       .  S
C3190      C3193   1.372       .  A
O3191      C3192   1.329       .  A
C3192      C3193   1.395       .  A
C3193      H3199   1.082       .  S
O3194      C3195   1.336       .  A
C3195      C3196   1.392       .  A
C3196      H3200   1.083       .  S
C3201      C3206   1.379       .  A
C3201      C3202   1.412       .  A
C3201      O3207   1.327       .  A
C3202      C3203   1.412       .  A
C3202      H3213   1.082       .  S
C3203      C3212   1.373       .  A
C3203      C3204   1.380       .  A
C3204      C3205   1.400       .  A
C3204      O3210   1.316       .  A
C3205      C3206   1.399       .  A
C3205      H3214   1.082       .  S
C3206      C3209   1.356       .  A
O3207      C3208   1.336       .  A
C3208      C3209   1.391       .  A
C3209      H3215   1.083       .  S
O3210      C3211   1.329       .  A
C3211      C3212   1.396       .  A
C3212      H3216   1.082       .  S
C3217      C3222   1.380       .  A
C3217      C3218   1.405       .  A
C3217      O3223   1.321       .  A
C3218      C3219   1.404       .  A
C3218      H3229   1.082       .  S
C3219      C3228   1.363       .  A
C3219      C3220   1.379       .  A
C3220      C3221   1.411       .  A
C3220      O3226   1.326       .  A
C3221      C3222   1.410       .  A
C3221      H3230   1.082       .  S
C3222      C3225   1.370       .  A
O3223      C3224   1.332       .  A
C3224      C3225   1.397       .  A
C3225      H3231   1.082       .  S
O3226      C3227   1.335       .  A
C3227      C3228   1.393       .  A
C3228      H3232   1.082       .  S
C3233      C3238   1.379       .  A
C3233      C3234   1.412       .  A
C3233      O3239   1.327       .  A
C3234      C3235   1.412       .  A
C3234      H3245   1.082       .  S
C3235      C3244   1.373       .  A
C3235      C3236   1.381       .  A
C3236      C3237   1.397       .  A
C3236      O3242   1.313       .  A
C3237      C3238   1.396       .  A
C3237      H3246   1.082       .  S
C3238      C3241   1.353       .  A
O3239      C3240   1.336       .  A
C3240      C3241   1.389       .  A
C3241      H3247   1.083       .  S
O3242      C3243   1.327       .  A
C3243      C3244   1.396       .  A
C3244      H3248   1.082       .  S
C3249      C3254   1.379       .  A
C3249      C3250   1.410       .  A
C3249      O3255   1.326       .  A
C3250      C3251   1.410       .  A
C3250      H3261   1.082       .  S
C3251      C3260   1.369       .  A
C3251      C3252   1.379       .  A
C3252      C3253   1.402       .  A
C3252      O3258   1.318       .  A
C3253      C3254   1.402       .  A
C3253      H3262   1.082       .  S
C3254      C3257   1.359       .  A
O3255      C3256   1.335       .  A
C3256      C3257   1.392       .  A
C3257      H3263   1.082       .  S
O3258      C3259   1.331       .  A
C3259      C3260   1.398       .  A
C3260      H3264   1.082       .  S
C3265      C3270   1.380       .  A
C3265      C3266   1.412       .  A
C3265      O3271   1.327       .  A
C3266      C3267   1.411       .  A
C3266      H3277   1.082       .  S
C3267      C3276   1.372       .  A
C3267      C3268   1.380       .  A
C3268      C3269   1.399       .  A
C3268      O3274   1.316       .  A
C3269      C3270   1.399       .  A
C3269      H3278   1.082       .  S
C3270      C3273   1.355       .  A
O3271      C3272   1.336       .  A
C3272      C3273   1.391       .  A
C3273      H3279   1.083       .  S
O3274      C3275   1.329       .  A
C3275      C3276   1.395       .  A
C3276      H3280   1.082       .  S
C3281      C3286   1.379       .  A
C3281      C3282   1.402       .  A
C3281      O3287   1.319       .  A
C3282      C3283   1.403       .  A
C3282      H3293   1.082       .  S
C3283      C3292   1.358       .  A
C3283      C3284   1.379       .  A
C3284      C3285   1.411       .  A
C3284      O3290   1.328       .  A
C3285      C3286   1.411       .  A
C3285      H3294   1.082       .  S
C3286      C3289   1.369       .  A
O3287      C3288   1.331       .  A
C3288      C3289   1.398       .  A
C3289      H3295   1.082       .  S
O3290      C3291   1.335       .  A
C3291      C3292   1.393       .  A
C3292      H3296   1.082       .  S
C3297      C3302   1.379       .  A
C3297      C3298   1.408       .  A
C3297      O3303   1.323       .  A
C3298      C3299   1.408       .  A
C3298      H3309   1.082       .  S
C3299      C3308   1.369       .  A
C3299      C3300   1.379       .  A
C3300      C3301   1.407       .  A
C3300      O3306   1.322       .  A
C3301      C3302   1.406       .  A
C3301      H3310   1.082       .  S
C3302      C3305   1.366       .  A
O3303      C3304   1.334       .  A
C3304      C3305   1.394       .  A
C3305      H3311   1.082       .  S
O3306      C3307   1.334       .  A
C3307      C3308   1.395       .  A
C3308      H3312   1.082       .  S
C3313      C3318   1.380       .  A
C3313      C3314   1.398       .  A
C3313      O3319   1.315       .  A
C3314      C3315   1.398       .  A
C3314      H3325   1.083       .  S
C3315      C3324   1.353       .  A
C3315      C3316   1.378       .  A
C3316      C3317   1.411       .  A
C3316      O3322   1.326       .  A
C3317      C3318   1.411       .  A
C3317      H3326   1.082       .  S
C3318      C3321   1.371       .  A
O3319      C3320   1.328       .  A
C3320      C3321   1.395       .  A
C3321      H3327   1.082       .  S
O3322      C3323   1.336       .  A
C3323      C3324   1.392       .  A
C3324      H3328   1.080       .  S
C3329      C3334   1.380       .  A
C3329      C3330   1.405       .  A
C3329      O3335   1.319       .  A
C3330      C3331   1.404       .  A
C3330      H3341   1.082       .  S
C3331      C3340   1.363       .  A
C3331      C3332   1.379       .  A
C3332      C3333   1.406       .  A
C3332      O3338   1.320       .  A
C3333      C3334   1.405       .  A
C3333      H3342   1.082       .  S
C3334      C3337   1.366       .  A
O3335      C3336   1.332       .  A
C3336      C3337   1.392       .  A
C3337      H3343   1.082       .  S
O3338      C3339   1.333       .  A
C3339      C3340   1.394       .  A
C3340      H3344   1.081       .  S
C3345      C3350   1.380       .  A
C3345      C3346   1.400       .  A
C3345      O3351   1.317       .  A
C3346      C3347   1.399       .  A
C3346      H3357   1.082       .  S
C3347      C3356   1.356       .  A
C3347      C3348   1.379       .  A
C3348      C3349   1.412       .  A
C3348      O3354   1.327       .  A
C3349      C3350   1.412       .  A
C3349      H3358   1.082       .  S
C3350      C3353   1.372       .  A
O3351      C3352   1.329       .  A
C3352      C3353   1.395       .  A
C3353      H3359   1.082       .  S
O3354      C3355   1.336       .  A
C3355      C3356   1.391       .  A
C3356      H3360   1.083       .  S
C3361      C3366   1.380       .  A
C3361      C3362   1.408       .  A
C3361      O3367   1.325       .  A
C3362      C3363   1.409       .  A
C3362      H3373   1.082       .  S
C3363      C3372   1.366       .  A
C3363      C3364   1.379       .  A
C3364      C3365   1.401       .  A
C3364      O3370   1.319       .  A
C3365      C3366   1.402       .  A
C3365      H3374   1.082       .  S
C3366      C3369   1.358       .  A
O3367      C3368   1.334       .  A
C3368      C3369   1.391       .  A
C3369      H3375   1.082       .  S
O3370      C3371   1.330       .  A
C3371      C3372   1.398       .  A
C3372      H3376   1.082       .  S
C3377      C3382   1.379       .  A
C3377      C3378   1.407       .  A
C3377      O3383   1.323       .  A
C3378      C3379   1.407       .  A
C3378      H3389   1.082       .  S
C3379      C3388   1.366       .  A
C3379      C3380   1.379       .  A
C3380      C3381   1.409       .  A
C3380      O3386   1.324       .  A
C3381      C3382   1.409       .  A
C3381      H3390   1.082       .  S
C3382      C3385   1.368       .  A
O3383      C3384   1.334       .  A
C3384      C3385   1.395       .  A
C3385      H3391   1.082       .  S
O3386      C3387   1.334       .  A
C3387      C3388   1.394       .  A
C3388      H3392   1.082       .  S
C3393      C3398   1.379       .  A
C3393      C3394   1.400       .  A
C3393      O3399   1.314       .  A
C3394      C3395   1.399       .  A
C3394      H3405   1.082       .  S
C3395      C3404   1.358       .  A
C3395      C3396   1.380       .  A
C3396      C3397   1.409       .  A
C3396      O3402   1.324       .  A
C3397      C3398   1.408       .  A
C3397      H3406   1.082       .  S
C3398      C3401   1.369       .  A
O3399      C3400   1.331       .  A
C3400      C3401   1.396       .  A
C3401      H3407   1.081       .  S
O3402      C3403   1.333       .  A
C3403      C3404   1.389       .  A
C3404      H3408   1.083       .  S
C3409      C3414   1.380       .  A
C3409      C3410   1.412       .  A
C3409      O3415   1.327       .  A
C3410      C3411   1.411       .  A
C3410      H3421   1.082       .  S
C3411      C3420   1.372       .  A
C3411      C3412   1.379       .  A
C3412      C3413   1.400       .  A
C3412      O3418   1.315       .  A
C3413      C3414   1.399       .  A
C3413      H3422   1.082       .  S
C3414      C3417   1.358       .  A
O3415      C3416   1.335       .  A
C3416      C3417   1.390       .  A
C3417      H3423   1.083       .  S
O3418      C3419   1.331       .  A
C3419      C3420   1.398       .  A
C3420      H3424   1.081       .  S
C3425      C3430   1.380       .  A
C3425      C3426   1.408       .  A
C3425      O3431   1.325       .  A
C3426      C3427   1.408       .  A
C3426      H3437   1.082       .  S
C3427      C3436   1.367       .  A
C3427      C3428   1.380       .  A
C3428      C3429   1.401       .  A
C3428      O3434   1.318       .  A
C3429      C3430   1.401       .  A
C3429      H3438   1.082       .  S
C3430      C3433   1.357       .  A
O3431      C3432   1.333       .  A
C3432      C3433   1.391       .  A
C3433      H3439   1.082       .  S
O3434      C3435   1.330       .  A
C3435      C3436   1.396       .  A
C3436      H3440   1.082       .  S
C3441      C3446   1.378       .  A
C3441      C3442   1.412       .  A
C3441      O3447   1.326       .  A
C3442      C3443   1.411       .  A
C3442      H3453   1.082       .  S
C3443      C3452   1.372       .  A
C3443      C3444   1.380       .  A
C3444      C3445   1.400       .  A
C3444      O3450   1.316       .  A
C3445      C3446   1.400       .  A
C3445      H3454   1.082       .  S
C3446      C3449   1.357       .  A
O3447      C3448   1.337       .  A
C3448      C3449   1.394       .  A
C3449      H3455   1.080       .  S
O3450      C3451   1.330       .  A
C3451      C3452   1.395       .  A
C3452      H3456   1.082       .  S
C3457      C3462   1.379       .  A
C3457      C3458   1.408       .  A
C3457      O3463   1.323       .  A
C3458      C3459   1.407       .  A
C3458      H3469   1.082       .  S
C3459      C3468   1.366       .  A
C3459      C3460   1.380       .  A
C3460      C3461   1.405       .  A
C3460      O3466   1.322       .  A
C3461      C3462   1.405       .  A
C3461      H3470   1.082       .  S
C3462      C3465   1.363       .  A
O3463      C3464   1.334       .  A
C3464      C3465   1.393       .  A
C3465      H3471   1.082       .  S
O3466      C3467   1.332       .  A
C3467      C3468   1.395       .  A
C3468      H3472   1.082       .  S
C3473      C3478   1.379       .  A
C3473      C3474   1.402       .  A
C3473      O3479   1.319       .  A
C3474      C3475   1.403       .  A
C3474      H3485   1.082       .  S
C3475      C3484   1.359       .  A
C3475      C3476   1.380       .  A
C3476      C3477   1.404       .  A
C3476      O3482   1.321       .  A
C3477      C3478   1.404       .  A
C3477      H3486   1.082       .  S
C3478      C3481   1.361       .  A
O3479      C3480   1.331       .  A
C3480      C3481   1.395       .  A
C3481      H3487   1.081       .  S
O3482      C3483   1.331       .  A
C3483      C3484   1.392       .  A
C3484      H3488   1.082       .  S
C3489      C3494   1.380       .  A
C3489      C3490   1.406       .  A
C3489      O3495   1.323       .  A
C3490      C3491   1.406       .  A
C3490      H3501   1.082       .  S
C3491      C3500   1.364       .  A
C3491      C3492   1.379       .  A
C3492      C3493   1.404       .  A
C3492      O3498   1.320       .  A
C3493      C3494   1.404       .  A
C3493      H3502   1.082       .  S
C3494      C3497   1.361       .  A
O3495      C3496   1.332       .  A
C3496      C3497   1.393       .  A
C3497      H3503   1.082       .  S
O3498      C3499   1.331       .  A
C3499      C3500   1.396       .  A
C3500      H3504   1.082       .  S
C3505      C3510   1.380       .  A
C3505      C3506   1.410       .  A
C3505      O3511   1.324       .  A
C3506      C3507   1.409       .  A
C3506      H3517   1.082       .  S
C3507      C3516   1.370       .  A
C3507      C3508   1.379       .  A
C3508      C3509   1.402       .  A
C3508      O3514   1.315       .  A
C3509      C3510   1.400       .  A
C3509      H3518   1.082       .  S
C3510      C3513   1.360       .  A
O3511      C3512   1.333       .  A
C3512      C3513   1.390       .  A
C3513      H3519   1.083       .  S
O3514      C3515   1.332       .  A
C3515      C3516   1.397       .  A
C3516      H3520   1.081       .  S
C3521      C3526   1.381       .  A
C3521      C3522   1.398       .  A
C3521      O3527   1.315       .  A
C3522      C3523   1.398       .  A
C3522      H3533   1.083       .  S
C3523      C3532   1.353       .  A
C3523      C3524   1.380       .  A
C3524      C3525   1.410       .  A
C3524      O3530   1.327       .  A
C3525      C3526   1.411       .  A
C3525      H3534   1.082       .  S
C3526      C3529   1.370       .  A
O3527      C3528   1.328       .  A
C3528      C3529   1.394       .  A
C3529      H3535   1.082       .  S
O3530      C3531   1.335       .  A
C3531      C3532   1.391       .  A
C3532      H3536   1.083       .  S
C3537      C3542   1.380       .  A
C3537      C3538   1.406       .  A
C3537      O3543   1.321       .  A
C3538      C3539   1.405       .  A
C3538      H3549   1.082       .  S
C3539      C3548   1.365       .  A
C3539      C3540   1.379       .  A
C3540      C3541   1.408       .  A
C3540      O3546   1.323       .  A
C3541      C3542   1.407       .  A
C3541      H3550   1.082       .  S
C3542      C3545   1.366       .  A
O3543      C3544   1.332       .  A
C3544      C3545   1.394       .  A
C3545      H3551   1.082       .  S
O3546      C3547   1.334       .  A
C3547      C3548   1.393       .  A
C3548      H3552   1.082       .  S
C3553      C3558   1.380       .  A
C3553      C3554   1.404       .  A
C3553      O3559   1.318       .  A
C3554      C3555   1.403       .  A
C3554      H3565   1.082       .  S
C3555      C3564   1.363       .  A
C3555      C3556   1.380       .  A
C3556      C3557   1.403       .  A
C3556      O3562   1.317       .  A
C3557      C3558   1.402       .  A
C3557      H3566   1.082       .  S
C3558      C3561   1.362       .  A
O3559      C3560   1.331       .  A
C3560      C3561   1.391       .  A
C3561      H3567   1.082       .  S
O3562      C3563   1.331       .  A
C3563      C3564   1.391       .  A
C3564      H3568   1.082       .  S
C3569      C3574   1.380       .  A
C3569      C3570   1.399       .  A
C3569      O3575   1.313       .  A
C3570      C3571   1.397       .  A
C3570      H3581   1.082       .  S
C3571      C3580   1.357       .  A
C3571      C3572   1.380       .  A
C3572      C3573   1.407       .  A
C3572      O3578   1.320       .  A
C3573      C3574   1.405       .  A
C3573      H3582   1.082       .  S
C3574      C3577   1.368       .  A
O3575      C3576   1.329       .  A
C3576      C3577   1.392       .  A
C3577      H3583   1.082       .  S
O3578      C3579   1.333       .  A
C3579      C3580   1.388       .  A
C3580      H3584   1.082       .  S
C3585      C3590   1.380       .  A
C3585      C3586   1.395       .  A
C3585      O3591   1.310       .  A
C3586      C3587   1.394       .  A
C3586      H3597   1.083       .  S
C3587      C3596   1.350       .  A
C3587      C3588   1.378       .  A
C3588      C3589   1.413       .  A
C3588      O3594   1.327       .  A
C3589      C3590   1.412       .  A
C3589      H3598   1.082       .  S
C3590      C3593   1.374       .  A
O3591      C3592   1.327       .  A
C3592      C3593   1.396       .  A
C3593      H3599   1.082       .  S
O3594      C3595   1.336       .  A
C3595      C3596   1.390       .  A
C3596      H3600   1.082       .  S
C3601      C3606   1.380       .  A
C3601      C3602   1.406       .  A
C3601      O3607   1.323       .  A
C3602      C3603   1.406       .  A
C3602      H3613   1.082       .  S
C3603      C3612   1.364       .  A
C3603      C3604   1.381       .  A
C3604      C3605   1.397       .  A
C3604      O3610   1.314       .  A
C3605      C3606   1.397       .  A
C3605      H3614   1.082       .  S
C3606      C3609   1.352       .  A
O3607      C3608   1.333       .  A
C3608      C3609   1.390       .  A
C3609      H3615   1.083       .  S
O3610      C3611   1.327       .  A
C3611      C3612   1.391       .  A
C3612      H3616   1.082       .  S
C3617      C3622   1.381       .  A
C3617      C3618   1.402       .  A
C3617      O3623   1.319       .  A
C3618      C3619   1.402       .  A
C3618      H3629   1.082       .  S
C3619      C3628   1.358       .  A
C3619      C3620   1.381       .  A
C3620      C3621   1.401       .  A
C3620      O3626   1.319       .  A
C3621      C3622   1.402       .  A
C3621      H3630   1.082       .  S
C3622      C3625   1.358       .  A
O3623      C3624   1.330       .  A
C3624      C3625   1.392       .  A
C3625      H3631   1.082       .  S
O3626      C3627   1.329       .  A
C3627      C3628   1.392       .  A
C3628      H3632   1.082       .  S
C3633      C3638   1.380       .  A
C3633      C3634   1.404       .  A
C3633      O3639   1.318       .  A
C3634      C3635   1.403       .  A
C3634      H3645   1.082       .  S
C3635      C3644   1.363       .  A
C3635      C3636   1.380       .  A
C3636      C3637   1.404       .  A
C3636      O3642   1.319       .  A
C3637      C3638   1.403       .  A
C3637      H3646   1.082       .  S
C3638      C3641   1.363       .  A
O3639      C3640   1.332       .  A
C3640      C3641   1.392       .  A
C3641      H3647   1.082       .  S
O3642      C3643   1.331       .  A
C3643      C3644   1.390       .  A
C3644      H3648   1.082       .  S
C3649      C3654   1.381       .  A
C3649      C3650   1.395       .  A
C3649      O3655   1.312       .  A
C3650      C3651   1.395       .  A
C3650      H3661   1.083       .  S
C3651      C3660   1.351       .  A
C3651      C3652   1.381       .  A
C3652      C3653   1.410       .  A
C3652      O3658   1.324       .  A
C3653      C3654   1.409       .  A
C3653      H3662   1.082       .  S
C3654      C3657   1.369       .  A
O3655      C3656   1.326       .  A
C3656      C3657   1.393       .  A
C3657      H3663   1.082       .  S
O3658      C3659   1.333       .  A
C3659      C3660   1.387       .  A
C3660      H3664   1.083       .  S
C3665      C3670   1.380       .  A
C3665      C3666   1.399       .  A
C3665      O3671   1.315       .  A
C3666      C3667   1.399       .  A
C3666      H3677   1.082       .  S
C3667      C3676   1.356       .  A
C3667      C3668   1.379       .  A
C3668      C3669   1.406       .  A
C3668      O3674   1.321       .  A
C3669      C3670   1.405       .  A
C3669      H3678   1.082       .  S
C3670      C3673   1.365       .  A
O3671      C3672   1.330       .  A
C3672      C3673   1.393       .  A
C3673      H3679   1.082       .  S
O3674      C3675   1.333       .  A
C3675      C3676   1.393       .  A
C3676      H3680   1.081       .  S
C3681      C3686   1.381       .  A
C3681      C3682   1.396       .  A
C3681      O3687   1.311       .  A
C3682      C3683   1.395       .  A
C3682      H3693   1.083       .  S
C3683      C3692   1.352       .  A
C3683      C3684   1.379       .  A
C3684      C3685   1.410       .  A
C3684      O3690   1.325       .  A
C3685      C3686   1.410       .  A
C3685      H3694   1.082       .  S
C3686      C3689   1.370       .  A
O3687      C3688   1.327       .  A
C3688      C3689   1.395       .  A
C3689      H3695   1.082       .  S
O3690      C3691   1.335       .  A
C3691      C3692   1.391       .  A
C3692      H3696   1.082       .  S
C3697      C3702   1.379       .  A
C3697      C3698   1.404       .  A
C3697      O3703   1.316       .  A
C3698      C3699   1.402       .  A
C3698      H3709   1.082       .  S
C3699      C3708   1.365       .  A
C3699      C3700   1.380       .  A
C3700      C3701   1.404       .  A
C3700      O3706   1.316       .  A
C3701      C3702   1.402       .  A
C3701      H3710   1.082       .  S
C3702      C3705   1.365       .  A
O3703      C3704   1.332       .  A
C3704      C3705   1.392       .  A
C3705      H3711   1.082       .  S
O3706      C3707   1.331       .  A
C3707      C3708   1.389       .  A
C3708      H3712   1.083       .  S
C3713      C3718   1.380       .  A
C3713      C3714   1.395       .  A
C3713      O3719   1.312       .  A
C3714      C3715   1.394       .  A
C3714      H3725   1.083       .  S
C3715      C3724   1.351       .  A
C3715      C3716   1.378       .  A
C3716      C3717   1.413       .  A
C3716      O3722   1.327       .  A
C3717      C3718   1.412       .  A
C3717      H3726   1.082       .  S
C3718      C3721   1.372       .  A
O3719      C3720   1.327       .  A
C3720      C3721   1.397       .  A
C3721      H3727   1.082       .  S
O3722      C3723   1.337       .  A
C3723      C3724   1.391       .  A
C3724      H3728   1.081       .  S
C3729      C3734   1.378       .  A
C3729      C3730   1.404       .  A
C3729      O3735   1.318       .  A
C3730      C3731   1.403       .  A
C3730      H3741   1.082       .  S
C3731      C3740   1.362       .  A
C3731      C3732   1.380       .  A
C3732      C3733   1.401       .  A
C3732      O3738   1.316       .  A
C3733      C3734   1.400       .  A
C3733      H3742   1.082       .  S
C3734      C3737   1.358       .  A
O3735      C3736   1.333       .  A
C3736      C3737   1.395       .  A
C3737      H3743   1.080       .  S
O3738      C3739   1.330       .  A
C3739      C3740   1.393       .  A
C3740      H3744   1.082       .  S
C3745      C3750   1.380       .  A
C3745      C3746   1.402       .  A
C3745      O3751   1.317       .  A
C3746      C3747   1.401       .  A
C3746      H3757   1.082       .  S
C3747      C3756   1.359       .  A
C3747      C3748   1.380       .  A
C3748      C3749   1.407       .  A
C3748      O3754   1.322       .  A
C3749      C3750   1.406       .  A
C3749      H3758   1.082       .  S
C3750      C3753   1.365       .  A
O3751      C3752   1.331       .  A
C3752      C3753   1.394       .  A
C3753      H3759   1.081       .  S
O3754      C3755   1.333       .  A
C3755      C3756   1.389       .  A
C3756      H3760   1.083       .  S
C3761      C3766   1.380       .  A
C3761      C3762   1.403       .  A
C3761      O3767   1.317       .  A
C3762      C3763   1.402       .  A
C3762      H3773   1.082       .  S
C3763      C3772   1.362       .  A
C3763      C3764   1.381       .  A
C3764      C3765   1.401       .  A
C3764      O3770   1.316       .  A
C3765      C3766   1.400       .  A
C3765      H3774   1.082       .  S
C3766      C3769   1.359       .  A
O3767      C3768   1.331       .  A
C3768      C3769   1.391       .  A
C3769      H3775   1.082       .  S
O3770      C3771   1.329       .  A
C3771      C3772   1.390       .  A
C3772      H3776   1.083       .  S
C3777      C3782   1.380       .  A
C3777      C3778   1.406       .  A
C3777      O3783   1.319       .  A
C3778      C3779   1.405       .  A
C3778      H3789   1.082       .  S
C3779      C3788   1.365       .  A
C3779      C3780   1.381       .  A
C3780      C3781   1.400       .  A
C3780      O3786   1.315       .  A
C3781      C3782   1.399       .  A
C3781      H3790   1.082       .  S
C3782      C3785   1.359       .  A
O3783      C3784   1.332       .  A
C3784      C3785   1.389       .  A
C3785      H3791   1.082       .  S
O3786      C3787   1.329       .  A
C3787      C3788   1.392       .  A
C3788      H3792   1.083       .  S
C3793      C3798   1.380       .  A
C3793      C3794   1.403       .  A
C3793      O3799   1.317       .  A
C3794      C3795   1.402       .  A
C3794      H3805   1.082       .  S
C3795      C3804   1.362       .  A
C3795      C3796   1.380       .  A
C3796      C3797   1.403       .  A
C3796      O3802   1.317       .  A
C3797      C3798   1.401       .  A
C3797      H3806   1.082       .  S
C3798      C3801   1.362       .  A
O3799      C3800   1.331       .  A
C3800      C3801   1.390       .  A
C3801      H3807   1.082       .  S
O3802      C3803   1.331       .  A
C3803      C3804   1.391       .  A
C3804      H3808   1.082       .  S
C3809      C3814   1.380       .  A
C3809      C3810   1.404       .  A
C3809      O3815   1.317       .  A
C3810      C3811   1.402       .  A
C3810      H3821   1.082       .  S
C3811      C3820   1.363       .  A
C3811      C3812   1.380       .  A
C3812      C3813   1.405       .  A
C3812      O3818   1.318       .  A
C3813      C3814   1.404       .  A
C3813      H3822   1.082       .  S
C3814      C3817   1.365       .  A
O3815      C3816   1.331       .  A
C3816      C3817   1.391       .  A
C3817      H3823   1.081       .  S
O3818      C3819   1.332       .  A
C3819      C3820   1.391       .  A
C3820      H3824   1.081       .  S
C3825      C3830   1.380       .  A
C3825      C3826   1.400       .  A
C3825      O3831   1.316       .  A
C3826      C3827   1.400       .  A
C3826      H3837   1.082       .  S
C3827      C3836   1.357       .  A
C3827      C3828   1.380       .  A
C3828      C3829   1.405       .  A
C3828      O3834   1.321       .  A
C3829      C3830   1.405       .  A
C3829      H3838   1.082       .  S
C3830      C3833   1.364       .  A
O3831      C3832   1.329       .  A
C3832      C3833   1.393       .  A
C3833      H3839   1.082       .  S
O3834      C3835   1.331       .  A
C3835      C3836   1.392       .  A
C3836      H3840   1.082       .  S
C3841      C3846   1.380       .  A
C3841      C3842   1.405       .  A
C3841      O3847   1.319       .  A
C3842      C3843   1.404       .  A
C3842      H3853   1.082       .  S
C3843      C3852   1.364       .  A
C3843      C3844   1.380       .  A
C3844      C3845   1.403       .  A
C3844      O3850   1.318       .  A
C3845      C3846   1.402       .  A
C3845      H3854   1.082       .  S
C3846      C3849   1.362       .  A
O3847      C3848   1.332       .  A
C3848      C3849   1.390       .  A
C3849      H3855   1.081       .  S
O3850      C3851   1.331       .  A
C3851      C3852   1.392       .  A
C3852      H3856   1.082       .  S
C3857      C3862   1.381       .  A
C3857      C3858   1.402       .  A
C3857      O3863   1.317       .  A
C3858      C3859   1.401       .  A
C3858      H3869   1.082       .  S
C3859      C3868   1.360       .  A
C3859      C3860   1.380       .  A
C3860      C3861   1.402       .  A
C3860      O3866   1.317       .  A
C3861      C3862   1.401       .  A
C3861      H3870   1.082       .  S
C3862      C3865   1.361       .  A
O3863      C3864   1.329       .  A
C3864      C3865   1.389       .  A
C3865      H3871   1.083       .  S
O3866      C3867   1.331       .  A
C3867      C3868   1.391       .  A
C3868      H3872   1.082       .  S
C3873      C3878   1.381       .  A
C3873      C3874   1.403       .  A
C3873      O3879   1.317       .  A
C3874      C3875   1.401       .  A
C3874      H3885   1.082       .  S
C3875      C3884   1.361       .  A
C3875      C3876   1.380       .  A
C3876      C3877   1.402       .  A
C3876      O3882   1.316       .  A
C3877      C3878   1.401       .  A
C3877      H3886   1.082       .  S
C3878      C3881   1.361       .  A
O3879      C3880   1.330       .  A
C3880      C3881   1.390       .  A
C3881      H3887   1.082       .  S
O3882      C3883   1.331       .  A
C3883      C3884   1.391       .  A
C3884      H3888   1.082       .  S
C3889      C3894   1.380       .  A
C3889      C3890   1.402       .  A
C3889      O3895   1.314       .  A
C3890      C3891   1.400       .  A
C3890      H3901   1.082       .  S
C3891      C3900   1.361       .  A
C3891      C3892   1.380       .  A
C3892      C3893   1.404       .  A
C3892      O3898   1.316       .  A
C3893      C3894   1.401       .  A
C3893      H3902   1.082       .  S
C3894      C3897   1.365       .  A
O3895      C3896   1.331       .  A
C3896      C3897   1.389       .  A
C3897      H3903   1.082       .  S
O3898      C3899   1.331       .  A
C3899      C3900   1.390       .  A
C3900      H3904   1.082       .  S
C3905      C3910   1.379       .  A
C3905      C3906   1.413       .  A
C3905      O3911   1.327       .  A
C3906      C3907   1.412       .  A
C3906      H3917   1.082       .  S
C3907      C3916   1.373       .  A
C3907      C3908   1.380       .  A
C3908      C3909   1.395       .  A
C3908      O3914   1.312       .  A
C3909      C3910   1.395       .  A
C3909      H3918   1.083       .  S
C3910      C3913   1.351       .  A
O3911      C3912   1.336       .  A
C3912      C3913   1.390       .  A
C3913      H3919   1.082       .  S
O3914      C3915   1.327       .  A
C3915      C3916   1.396       .  A
C3916      H3920   1.082       .  S
C3921      C3926   1.381       .  A
C3921      C3922   1.406       .  A
C3921      O3927   1.322       .  A
C3922      C3923   1.406       .  A
C3922      H3933   1.082       .  S
C3923      C3932   1.364       .  A
C3923      C3924   1.382       .  A
C3924      C3925   1.396       .  A
C3924      O3930   1.314       .  A
C3925      C3926   1.396       .  A
C3925      H3934   1.082       .  S
C3926      C3929   1.351       .  A
O3927      C3928   1.333       .  A
C3928      C3929   1.389       .  A
C3929      H3935   1.083       .  S
O3930      C3931   1.326       .  A
C3931      C3932   1.391       .  A
C3932      H3936   1.083       .  S
C3937      C3942   1.378       .  A
C3937      C3938   1.405       .  A
C3937      O3943   1.318       .  A
C3938      C3939   1.403       .  A
C3938      H3949   1.082       .  S
C3939      C3948   1.364       .  A
C3939      C3940   1.380       .  A
C3940      C3941   1.400       .  A
C3940      O3946   1.313       .  A
C3941      C3942   1.398       .  A
C3941      H3950   1.082       .  S
C3942      C3945   1.357       .  A
O3943      C3944   1.332       .  A
C3944      C3945   1.394       .  A
C3945      H3951   1.080       .  S
O3946      C3947   1.330       .  A
C3947      C3948   1.392       .  A
C3948      H3952   1.082       .  S
C3953      C3958   1.380       .  A
C3953      C3954   1.401       .  A
C3953      O3959   1.314       .  A
C3954      C3955   1.399       .  A
C3954      H3965   1.082       .  S
C3955      C3964   1.361       .  A
C3955      C3956   1.381       .  A
C3956      C3957   1.403       .  A
C3956      O3962   1.315       .  A
C3957      C3958   1.401       .  A
C3957      H3966   1.082       .  S
C3958      C3961   1.363       .  A
O3959      C3960   1.330       .  A
C3960      C3961   1.392       .  A
C3961      H3967   1.082       .  S
O3962      C3963   1.330       .  A
C3963      C3964   1.388       .  A
C3964      H3968   1.083       .  S
C3969      C3974   1.379       .  A
C3969      C3970   1.408       .  A
C3969      O3975   1.324       .  A
C3970      C3971   1.408       .  A
C3970      H3981   1.082       .  S
C3971      C3980   1.366       .  A
C3971      C3972   1.381       .  A
C3972      C3973   1.397       .  A
C3972      O3978   1.315       .  A
C3973      C3974   1.398       .  A
C3973      H3982   1.082       .  S
C3974      C3977   1.353       .  A
O3975      C3976   1.333       .  A
C3976      C3977   1.392       .  A
C3977      H3983   1.082       .  S
O3978      C3979   1.328       .  A
C3979      C3980   1.393       .  A
C3980      H3984   1.082       .  S
C3985      C3990   1.380       .  A
C3985      C3986   1.397       .  A
C3985      O3991   1.312       .  A
C3986      C3987   1.396       .  A
C3986      H3997   1.083       .  S
C3987      C3996   1.354       .  A
C3987      C3988   1.380       .  A
C3988      C3989   1.408       .  A
C3988      O3994   1.322       .  A
C3989      C3990   1.407       .  A
C3989      H3998   1.082       .  S
C3990      C3993   1.368       .  A
O3991      C3992   1.328       .  A
C3992      C3993   1.394       .  A
C3993      H3999   1.082       .  S
O3994      C3995   1.333       .  A
C3995      C3996   1.389       .  A
C3996      H4000   1.082       .  S
C4001      C4006   1.381       .  A
C4001      C4002   1.402       .  A
C4001      O4007   1.316       .  A
C4002      C4003   1.401       .  A
C4002      H4013   1.082       .  S
C4003      C4012   1.360       .  A
C4003      C4004   1.380       .  A
C4004      C4005   1.404       .  A
C4004      O4010   1.318       .  A
C4005      C4006   1.402       .  A
C4005      H4014   1.082       .  S
C4006      C4009   1.363       .  A
O4007      C4008   1.330       .  A
C4008      C4009   1.390       .  A
C4009      H4015   1.082       .  S
O4010      C4011   1.331       .  A
C4011      C4012   1.391       .  A
C4012      H4016   1.082       .  S
C4017      C4022   1.379       .  A
C4017      C4018   1.410       .  A
C4017      O4023   1.326       .  A
C4018      C4019   1.410       .  A
C4018      H4029   1.082       .  S
C4019      C4028   1.370       .  A
C4019      C4020   1.381       .  A
C4020      C4021   1.396       .  A
C4020      O4026   1.312       .  A
C4021      C4022   1.395       .  A
C4021      H4030   1.083       .  S
C4022      C4025   1.351       .  A
O4023      C4024   1.335       .  A
C4024      C4025   1.390       .  A
C4025      H4031   1.082       .  S
O4026      C4027   1.327       .  A
C4027      C4028   1.394       .  A
C4028      H4032   1.082       .  S
C4033      C4038   1.381       .  A
C4033      C4034   1.396       .  A
C4033      O4039   1.312       .  A
C4034      C4035   1.396       .  A
C4034      H4045   1.083       .  S
C4035      C4044   1.352       .  A
C4035      C4036   1.380       .  A
C4036      C4037   1.407       .  A
C4036      O4042   1.323       .  A
C4037      C4038   1.407       .  A
C4037      H4046   1.082       .  S
C4038      C4041   1.367       .  A
O4039      C4040   1.328       .  A
C4040      C4041   1.392       .  A
C4041      H4047   1.082       .  S
O4042      C4043   1.333       .  A
C4043      C4044   1.390       .  A
C4044      H4048   1.082       .  S
C4049      C4054   1.380       .  A
C4049      C4050   1.404       .  A
C4049      O4055   1.317       .  A
C4050      C4051   1.402       .  A
C4050      H4061   1.082       .  S
C4051      C4060   1.363       .  A
C4051      C4052   1.381       .  A
C4052      C4053   1.401       .  A
C4052      O4058   1.315       .  A
C4053      C4054   1.399       .  A
C4053      H4062   1.082       .  S
C4054      C4057   1.359       .  A
O4055      C4056   1.332       .  A
C4056      C4057   1.391       .  A
C4057      H4063   1.082       .  S
O4058      C4059   1.329       .  A
C4059      C4060   1.390       .  A
C4060      H4064   1.082       .  S
