geometry optimzed in LAMMPS
_audit_creation_date              2020-12-01 
_audit_creation_method            'lammps2cif' 
_symmetry_space_group_name_H-M    'P1' 
_symmetry_Int_Tables_number       1 
_symmetry_cell_setting            triclinic 
loop_ 
_symmetry_equiv_pos_as_xyz 
  x,y,z 
_cell_length_a                    46.66366478 
_cell_length_b                    46.85086880631446 
_cell_length_c                    46.71590092774757 
_cell_angle_alpha                 89.8851751668997 
_cell_angle_beta                  90.35941989024741 
_cell_angle_gamma                 90.09677264523003 
loop_ 
_atom_site_label 
_atom_site_type_symbol 
_atom_site_fract_x 
_atom_site_fract_y 
_atom_site_fract_z 
_atom_site_charge 
N1          N  0.56859757  0.90335510  0.70405256    -0.03100
C2          C  0.57874417  0.88118711  0.72019421    -0.00500
C3          C  0.59096305  0.89172617  0.74505597    -0.23400
C4          C  0.58819198  0.92096845  0.74416514    -0.23600
C5          C  0.57464435  0.92783901  0.71864462    -0.00600
H6          H  0.60245627  0.87963299  0.76119353     0.13100
H7          H  0.59830508  0.93580153  0.75883397     0.13200
N8          N  0.57282877  0.98165890  0.71275784    -0.03100
C9          C  0.59311091  0.00072523  0.70401082    -0.00500
C10         C  0.61464292  0.98650153  0.68972858    -0.23400
C11         C  0.60756648  0.95797495  0.69005746    -0.23600
C12         C  0.58184906  0.95531841  0.70440273    -0.00600
H13         H  0.63426151  0.99555683  0.68143731     0.13100
H14         H  0.62118008  0.94068887  0.68305048     0.13200
N15         N  0.94523236  0.69879744  0.53970873    -0.03100
C16         C  0.92570361  0.71092654  0.55745124    -0.00500
C17         C  0.93927212  0.72988021  0.57564434    -0.23400
C18         C  0.96803782  0.72881420  0.56921374    -0.23600
C19         C  0.97142624  0.70929108  0.54723288    -0.00600
H20         H  0.92973143  0.74162894  0.59306642     0.13100
H21         H  0.98504755  0.73858038  0.58167253     0.13200
N22         N  0.02428856  0.70432684  0.53898079    -0.03100
C23         C  0.04433906  0.69003369  0.55473677    -0.00500
C24         C  0.03145023  0.66903830  0.57096384    -0.23400
C25         C  0.00254017  0.67073567  0.56538493    -0.23600
C26         C  0.99845198  0.69267059  0.54586829    -0.00600
H27         H  0.04167798  0.65523647  0.58655111     0.13100
H28         H  0.98596073  0.65947151  0.57696121     0.13200
N29         N  0.52013349  0.67490430  0.35571882    -0.03100
C30         C  0.53786344  0.68328852  0.33424427    -0.00500
C31         C  0.52229967  0.69724448  0.31324297    -0.23400
C32         C  0.49413372  0.69695524  0.32192873    -0.23600
C33         C  0.49316803  0.68299367  0.34807150    -0.00600
H34         H  0.53020769  0.70526804  0.29303828     0.13100
H35         H  0.47590835  0.70358583  0.30911313     0.13200
N36         N  0.44166158  0.68176321  0.36290103    -0.03100
C37         C  0.41991840  0.66464599  0.35349560    -0.00500
C38         C  0.43103952  0.64000566  0.34181118    -0.23400
C39         C  0.46034728  0.64200707  0.34408952    -0.23600
C40         C  0.46656373  0.66799481  0.35671879    -0.00600
H41         H  0.41923544  0.62336763  0.33082193     0.13100
H42         H  0.47552679  0.62780200  0.33403912     0.13200
N43         N  0.73267608  0.53606836  0.90932929    -0.03100
C44         C  0.74393860  0.55472547  0.89002796    -0.00500
C45         C  0.76343860  0.57252794  0.90336447    -0.23400
C46         C  0.76383591  0.56485112  0.93181239    -0.23600
C47         C  0.74463839  0.54251124  0.93522449    -0.00600
H48         H  0.77488699  0.59023881  0.89386078     0.13100
H49         H  0.77458132  0.57647756  0.94877834     0.13200
N50         N  0.74399231  0.53142267  0.98775875    -0.03100
C51         C  0.73156953  0.54640035  0.00936234    -0.00500
C52         C  0.70935895  0.56280450  0.99879712    -0.23400
C53         C  0.70838886  0.55824648  0.96974912    -0.23600
C54         C  0.73002774  0.53918276  0.96320011    -0.00600
H55         H  0.69642175  0.57780406  0.01063191     0.13100
H56         H  0.69563985  0.57035122  0.95457559     0.13200
O57         O  0.60147100  0.33045321  0.76377208    -0.78100
C58         C  0.66723967  0.35164065  0.82243863     0.82900
O59         O  0.68045896  0.27850346  0.72372241    -0.79300
O60         O  0.70486149  0.26742052  0.82761075    -0.80700
O61         O  0.59736063  0.25937254  0.83306728    -0.80500
O62         O  0.57675909  0.29077370  0.77264038    -0.79200
Zn63       Zn  0.64319948  0.32055442  0.76978363     1.55700
O64         O  0.63725272  0.26917788  0.85763590    -0.80600
Cd65       Cd  0.60801184  0.26425980  0.79028713     1.59700
Cd66       Cd  0.67173126  0.25769691  0.76261580     1.59600
O67         O  0.60714037  0.22348508  0.77177254    -0.80600
O68         O  0.64680374  0.28254476  0.78698321    -1.91100
Cd69       Cd  0.66418355  0.28600089  0.82629830     1.59900
O70         O  0.65128137  0.21855537  0.75448035    -0.80500
O71         O  0.66924726  0.32863056  0.83691322    -0.79200
C72         C  0.67485500  0.30367574  0.71459273     0.83400
C73         C  0.57781653  0.31686410  0.76470975     0.83000
O74         O  0.65938356  0.35142272  0.79618399    -0.78100
C75         C  0.61103150  0.26133120  0.85672613     0.83800
O76         O  0.66154433  0.32167783  0.73013519    -0.78200
C77         C  0.62621863  0.20853096  0.75924594     0.84000
C78         C  0.71995826  0.25426831  0.80910291     0.84300
O79         O  0.71044338  0.24916789  0.78387969    -0.80600
O80         O  0.29684001  0.82244096  0.56478873    -0.78100
C81         C  0.35729943  0.75820072  0.54048820     0.82900
O82         O  0.26216130  0.74014468  0.61590642    -0.79300
O83         O  0.36691686  0.72019613  0.62559823    -0.80700
O84         O  0.36987995  0.82689902  0.63370234    -0.80500
O85         O  0.31015209  0.84706906  0.60347411    -0.79200
Zn86       Zn  0.30501310  0.78070696  0.57307756     1.55700
O87         O  0.39507323  0.78869503  0.62094725    -0.80600
Cd88       Cd  0.32726868  0.81530321  0.62957222     1.59700
Cd89       Cd  0.30099650  0.75077712  0.63584664     1.59600
O90         O  0.30869268  0.81502937  0.67039065    -0.80600
O91         O  0.32385129  0.77689785  0.61068052    -1.91100
Cd92       Cd  0.36336022  0.76052852  0.60647764     1.59900
O93         O  0.29219590  0.77053121  0.67481188    -0.80500
O94         O  0.37163025  0.75526616  0.56361179    -0.79200
C95         C  0.25187030  0.74582513  0.59112028     0.83400
C96         C  0.29985215  0.84596520  0.57815340     0.83000
O97         O  0.33119278  0.76650434  0.54071038    -0.78100
C98         C  0.39379605  0.81450930  0.62958860     0.83800
O99         O  0.26613894  0.76034287  0.57287730    -0.78200
C100        C  0.29633631  0.79550127  0.68503357     0.84000
C101        C  0.34904750  0.70466093  0.63924467     0.84300
O102        O  0.32368432  0.71334141  0.64456101    -0.80600
N103        N  0.07366635  0.47825142  0.20786163    -0.03100
C104        C  0.09169358  0.49708386  0.19483880    -0.00500
C105        C  0.10951770  0.48267114  0.17635611    -0.23400
C106        C  0.10210017  0.45424984  0.17786916    -0.23600
C107        C  0.08016596  0.45184716  0.19753009    -0.00600
H108        H  0.12705217  0.49164826  0.16422411     0.13100
H109        H  0.11367440  0.43682686  0.16810701     0.13200
N110        N  0.06908676  0.39943986  0.20069497    -0.03100
C111        C  0.08254222  0.37829352  0.21569921    -0.00500
C112        C  0.09785467  0.39013803  0.23817735    -0.23400
C113        C  0.09374052  0.41918860  0.23688358    -0.23600
C114        C  0.07628572  0.42461929  0.21347209    -0.00600
H115        H  0.11211386  0.37907808  0.25278932     0.13100
H116        H  0.10530731  0.43489011  0.24942144     0.13200
O117        O  0.86821612  0.55786841  0.26518753    -0.78100
C118        C  0.80069768  0.53570256  0.32246947     0.82900
O119        O  0.78906656  0.60891555  0.22366809    -0.79300
O120        O  0.76248275  0.61966621  0.32627668    -0.80700
O121        O  0.86976917  0.62906449  0.33566161    -0.80500
O122        O  0.89285693  0.59639499  0.27887190    -0.79200
Zn123      Zn  0.82602684  0.56688807  0.27021844     1.55700
O124        O  0.82947160  0.61879681  0.35887976    -0.80600
Cd125      Cd  0.86052786  0.62317309  0.29289336     1.59700
Cd126      Cd  0.79770288  0.62952197  0.26244949     1.59600
O127        O  0.86203185  0.66340626  0.27329483    -0.80600
O128        O  0.82196088  0.60469136  0.28779048    -1.91100
Cd129      Cd  0.80352819  0.60143423  0.32656177     1.59900
O130        O  0.81849877  0.66832845  0.25388476    -0.80500
O131        O  0.79851565  0.55867397  0.33688905    -0.79200
C132        C  0.79443797  0.58382568  0.21446666     0.83400
C133        C  0.89187540  0.57095914  0.26927932     0.83000
O134        O  0.80927005  0.53588832  0.29649666    -0.78100
C135        C  0.85556894  0.62710941  0.35875954     0.83800
O136        O  0.80780336  0.56565532  0.23002860    -0.78200
C137        C  0.84352971  0.67815145  0.25942051     0.84000
C138        C  0.74793313  0.63244023  0.30681896     0.84300
O139        O  0.75850517  0.63756205  0.28214436    -0.80600
N140        N  0.94665663  0.20853688  0.86250613    -0.03100
C141        C  0.92544172  0.19483634  0.84779864    -0.00500
C142        C  0.93664580  0.17252666  0.83224471    -0.23400
C143        C  0.96572200  0.17282424  0.83706707    -0.23600
C144        C  0.97158584  0.19529755  0.85542337    -0.00600
H145        H  0.92521185  0.15864503  0.81761223     0.13100
H146        H  0.98130160  0.16025787  0.82555308     0.13200
N147        N  0.02528124  0.19991970  0.85880913    -0.03100
C148        C  0.04407632  0.21047955  0.83927676    -0.00500
C149        C  0.03022919  0.22883496  0.82069642    -0.23400
C150        C  0.00189435  0.22904561  0.82866548    -0.23600
C151        C  0.99907435  0.21079398  0.85188376    -0.00600
H152        H  0.03923213  0.23928237  0.80212360     0.13100
H153        H  0.98457156  0.23866011  0.81652810     0.13200
O154        O  0.79096083  0.32046051  0.06550456    -0.78100
C155        C  0.85394398  0.25631323  0.04753677     0.82900
O156        O  0.75376709  0.24201616  0.11767990    -0.79300
O157        O  0.85644131  0.21953883  0.13398203    -0.80700
O158        O  0.86192073  0.32673118  0.13763488    -0.80500
O159        O  0.80266417  0.34616558  0.10388985    -0.79200
Zn160      Zn  0.79936383  0.27899007  0.07575346     1.55700
O161        O  0.88645086  0.28697132  0.12889255    -0.80600
Cd162      Cd  0.81910937  0.31567671  0.13196779     1.59700
Cd163      Cd  0.79133906  0.25221607  0.13931814     1.59600
O164        O  0.79876750  0.31735304  0.17192188    -0.80600
O165        O  0.81599882  0.27664193  0.11447023    -1.91100
Cd166      Cd  0.85519453  0.25911131  0.11334233     1.59900
O167        O  0.78071316  0.27352451  0.17676470    -0.80500
O168        O  0.86661553  0.25234599  0.07143411    -0.79200
C169        C  0.74595717  0.24394311  0.09151172     0.83400
C170        C  0.79344579  0.34449011  0.07814493     0.83000
O171        O  0.82825884  0.26560203  0.04617683    -0.78100
C172        C  0.88561013  0.31328536  0.13590773     0.83800
O173        O  0.76179456  0.25598204  0.07275612    -0.78200
C174        C  0.78498524  0.29867898  0.18639516     0.84000
C175        C  0.83742482  0.20474447  0.14686111     0.84300
O176        O  0.81199939  0.21416495  0.15034485    -0.80600
N177        N  0.44603012  0.17924355  0.03788574    -0.03100
C178        C  0.42713182  0.19057095  0.05685621    -0.00500
C179        C  0.44160012  0.20813827  0.07584808    -0.23400
C180        C  0.47011221  0.20716426  0.06854732    -0.23600
C181        C  0.47247963  0.18908320  0.04531103    -0.00600
H182        H  0.43283227  0.21912781  0.09414470     0.13100
H183        H  0.48762779  0.21616082  0.08088985     0.13200
N184        N  0.52498385  0.18550551  0.03484299    -0.03100
C185        C  0.54584274  0.16928136  0.04731856    -0.00500
C186        C  0.53344625  0.14639785  0.06131800    -0.23400
C187        C  0.50430465  0.14861776  0.05727784    -0.23600
C188        C  0.49945688  0.17296611  0.04119179    -0.00600
H189        H  0.54425253  0.13085585  0.07470806     0.13100
H190        H  0.48823374  0.13586715  0.06799527     0.13200
N191        N  0.24235233  0.85092614  0.90916614    -0.03100
C192        C  0.23388814  0.83001549  0.89062013    -0.00500
C193        C  0.21842664  0.80942736  0.90509089    -0.23400
C194        C  0.21775151  0.81764051  0.93330076    -0.23600
C195        C  0.23285071  0.84301528  0.93557784    -0.00600
H196        H  0.21017555  0.78957337  0.89655940     0.13100
H197        H  0.20998064  0.80471562  0.95086460     0.13200
N198        N  0.23288877  0.85611418  0.98745097    -0.03100
C199        C  0.24726517  0.84321369  0.00940240    -0.00500
C200        C  0.27130409  0.82953494  0.99930655    -0.23400
C201        C  0.27146452  0.83364192  0.97017886    -0.23600
C202        C  0.24746380  0.84962427  0.96310408    -0.00600
H203        H  0.28603405  0.81636943  0.01147281     0.13100
H204        H  0.28542409  0.82278546  0.95533182     0.13200
O205        O  0.36116883  0.05739433  0.76162157    -0.78100
C206        C  0.29416274  0.03994201  0.82092151     0.82900
O207        O  0.28520218  0.10928196  0.71844463    -0.79300
O208        O  0.25987699  0.12696746  0.82061626    -0.80700
O209        O  0.36710790  0.12974089  0.82819346    -0.80500
O210        O  0.38638685  0.09716187  0.76902930    -0.79200
Zn211      Zn  0.31943602  0.06798680  0.76712113     1.55700
O212        O  0.32664993  0.12211180  0.85223258    -0.80600
Cd213      Cd  0.35604174  0.12457629  0.78554662     1.59700
Cd214      Cd  0.29363874  0.13135960  0.75608489     1.59600
O215        O  0.35848916  0.16430103  0.76498221    -0.80600
O216        O  0.31702029  0.10683842  0.78233845    -1.91100
Cd217      Cd  0.29903640  0.10558528  0.82125704     1.59900
O218        O  0.31537983  0.16850487  0.74473358    -0.80500
O219        O  0.29162969  0.06363259  0.83405228    -0.79200
C220        C  0.28828367  0.08324953  0.71106754     0.83400
C221        C  0.38495785  0.07084599  0.76220869     0.83000
O222        O  0.30317881  0.03893203  0.79518672    -0.78100
C223        C  0.35321967  0.12863904  0.85158565     0.83800
O224        O  0.29950417  0.06482967  0.72794264    -0.78200
C225        C  0.34045684  0.17827372  0.74978532     0.84000
C226        C  0.24561965  0.13996374  0.80111324     0.84300
O227        O  0.25534097  0.14298652  0.77575098    -0.80600
N228        N  0.22319213  0.02976233  0.41076214    -0.03100
C229        C  0.23539339  0.04819876  0.39180835    -0.00500
C230        C  0.25317415  0.06695911  0.40621809    -0.23400
C231        C  0.25192586  0.05980834  0.43476072    -0.23600
C232        C  0.23311445  0.03708326  0.43723104    -0.00600
H233        H  0.26443055  0.08503739  0.39717848     0.13100
H234        H  0.26102458  0.07211280  0.45218909     0.13200
N235        N  0.22914727  0.02634676  0.48959027    -0.03100
C236        C  0.21448793  0.04029258  0.51042963    -0.00500
C237        C  0.19250393  0.05592188  0.49818931    -0.23400
C238        C  0.19374000  0.05140781  0.46911811    -0.23600
C239        C  0.21671950  0.03347764  0.46412776    -0.00600
H240        H  0.17847082  0.07073603  0.50897283     0.13100
H241        H  0.18167609  0.06312030  0.45310066     0.13200
O242        O  0.16906199  0.06203116  0.06313994    -0.78100
C243        C  0.11045157  0.12969358  0.04435677     0.82900
O244        O  0.20968760  0.13941452  0.11687398    -0.79300
O245        O  0.10411781  0.16136535  0.13186010    -0.80700
O246        O  0.10191116  0.05474913  0.13648466    -0.80500
O247        O  0.16049897  0.03615541  0.10222519    -0.79200
Zn248      Zn  0.16349345  0.10360037  0.07392450     1.55700
O249        O  0.07614705  0.09321538  0.12529918    -0.80600
Cd250      Cd  0.14418515  0.06678728  0.12996118     1.59700
Cd251      Cd  0.17063739  0.13105749  0.13664036     1.59600
O252        O  0.16438163  0.06626028  0.17015932    -0.80600
O253        O  0.14632370  0.10581245  0.11204260    -1.91100
Cd254      Cd  0.10653385  0.12225959  0.11000750     1.59900
O255        O  0.17925939  0.11118855  0.17580803    -0.80500
O256        O  0.09603751  0.13041833  0.06747653    -0.79200
C257        C  0.21911724  0.13477854  0.09170057     0.83400
C258        C  0.16790783  0.03799411  0.07600783     0.83000
O259        O  0.13651439  0.12126648  0.04410852    -0.78100
C260        C  0.07784375  0.06738667  0.13402306     0.83800
O261        O  0.20352941  0.12228342  0.07288835    -0.78200
C262        C  0.17609870  0.08578893  0.18536384     0.84000
C263        C  0.12354470  0.17762278  0.14237007     0.84300
O264        O  0.14968017  0.16963805  0.14419874    -0.80600
N265        N  0.89574331  0.90474508  0.21381100    -0.03100
C266        C  0.87938636  0.88416847  0.20110129    -0.00500
C267        C  0.86148154  0.89626851  0.18082698    -0.23400
C268        C  0.86674664  0.92513882  0.18127100    -0.23600
C269        C  0.88777275  0.93003398  0.20173692    -0.00600
H270        H  0.84516134  0.88554113  0.16827043     0.13100
H271        H  0.85421016  0.94120391  0.17020372     0.13200
N272        N  0.89521562  0.98309097  0.20561467    -0.03100
C273        C  0.87793637  0.00330658  0.21735923    -0.00500
C274        C  0.86004767  0.99084023  0.23724972    -0.23400
C275        C  0.86614253  0.96212132  0.23727030    -0.23600
C276        C  0.88754707  0.95758667  0.21737298    -0.00600
H277        H  0.84294885  0.00102920  0.24894333     0.13100
H278        H  0.85369398  0.94581060  0.24797761     0.13200
O279        O  0.10564864  0.82286592  0.25761293    -0.78100
C280        C  0.17229587  0.84424457  0.31733576     0.82900
O281        O  0.18765041  0.77341432  0.22006554    -0.79300
O282        O  0.20707699  0.75591542  0.32453639    -0.80700
O283        O  0.10225549  0.75049907  0.32820417    -0.80500
O284        O  0.08029777  0.78466143  0.27020672    -0.79200
Zn285      Zn  0.14715622  0.81364045  0.26485127     1.55700
O286        O  0.14039927  0.76536311  0.35295186    -0.80600
Cd287      Cd  0.11229380  0.75727659  0.28544888     1.59700
Cd288      Cd  0.17650609  0.75149793  0.25754878     1.59600
O289        O  0.11134426  0.71767650  0.26461748    -0.80600
O290        O  0.15114220  0.77571447  0.28208263    -1.91100
Cd291      Cd  0.16884051  0.77878984  0.32141152     1.59900
O292        O  0.15540318  0.71332930  0.24682902    -0.80500
O293        O  0.17777109  0.82110674  0.33065925    -0.79200
C294        C  0.18222029  0.79870847  0.21126917     0.83400
C295        C  0.08169150  0.81023533  0.26077866     0.83000
O296        O  0.16103179  0.84437898  0.29237548    -0.78100
C297        C  0.11502891  0.75515572  0.35197792     0.83800
O298        O  0.16757523  0.81605416  0.22633546    -0.78200
C299        C  0.13021524  0.70335243  0.25106266     0.84000
C300        C  0.22244587  0.74354118  0.30576194     0.84300
O301        O  0.21417880  0.74123879  0.27971880    -0.80600
N302        N  0.39532588  0.39898759  0.68823742    -0.03100
C303        C  0.37767602  0.37885655  0.67670233    -0.00500
C304        C  0.35914433  0.39134971  0.65726203    -0.23400
C305        C  0.36521493  0.42012830  0.65741448    -0.23600
C306        C  0.38733673  0.42452398  0.67685543    -0.00600
H307        H  0.34174639  0.38109229  0.64580132     0.13100
H308        H  0.35250621  0.43650926  0.64703751     0.13200
N309        N  0.39699569  0.47708147  0.68015339    -0.03100
C310        C  0.38209999  0.49800813  0.69369341    -0.00500
C311        C  0.36491199  0.48636987  0.71464797    -0.23400
C312        C  0.36906744  0.45735072  0.71375279    -0.23600
C313        C  0.38879626  0.45202005  0.69241413    -0.00600
H314        H  0.34980631  0.49756900  0.72803020     0.13100
H315        H  0.35669649  0.44157728  0.72531750     0.13200
N316        N  0.72706602  0.35360557  0.40842345    -0.03100
C317        C  0.71552979  0.33542447  0.38874184    -0.00500
C318        C  0.69514814  0.31829352  0.40151333    -0.23400
C319        C  0.69459299  0.32580812  0.42996616    -0.23600
C320        C  0.71463091  0.34730473  0.43398374    -0.00600
H321        H  0.68325760  0.30098672  0.39173838     0.13100
H322        H  0.68326931  0.31438922  0.44660611     0.13200
N323        N  0.71655493  0.35735646  0.48675658    -0.03100
C324        C  0.72998539  0.34295132  0.50839388    -0.00500
C325        C  0.75147123  0.32598922  0.49749585    -0.23400
C326        C  0.75111437  0.32981600  0.46831526    -0.23600
C327        C  0.72954371  0.34912751  0.46206895    -0.00600
H328        H  0.76482207  0.31114059  0.50928376     0.13100
H329        H  0.76319255  0.31744295  0.45301996     0.13200
O330        O  0.59982617  0.63376144  0.56839547    -0.78100
C331        C  0.58144534  0.57276112  0.63363155     0.82900
O332        O  0.65029966  0.67521224  0.64632344    -0.79300
O333        O  0.66842552  0.57186590  0.66985065    -0.80700
O334        O  0.67234394  0.56774760  0.56253364    -0.80500
O335        O  0.64018611  0.62718905  0.54400158    -0.79200
Zn336      Zn  0.60942120  0.62742128  0.61024414     1.55700
O337        O  0.66206737  0.54231415  0.60149632    -0.80600
Cd338      Cd  0.66723835  0.60996676  0.57470668     1.59700
Cd339      Cd  0.67275818  0.63775203  0.63774891     1.59600
O340        O  0.70736584  0.63001623  0.57395253    -0.80600
O341        O  0.64859317  0.61224299  0.61323430    -1.91100
Cd342      Cd  0.64741430  0.57291155  0.63028361     1.59900
O343        O  0.71117953  0.64879052  0.61757289    -0.80500
O344        O  0.60558678  0.56066580  0.63745133    -0.79200
C345        C  0.62414714  0.68270494  0.64305212     0.83400
C346        C  0.61363716  0.63357051  0.54491905     0.83000
O347        O  0.57975542  0.59838253  0.62434101    -0.78100
C348        C  0.66947913  0.54381364  0.57525603     0.83800
O349        O  0.60581818  0.66615937  0.63105633    -0.78200
C350        C  0.72144866  0.64418300  0.59270565     0.84000
C351        C  0.68012629  0.59128778  0.68518390     0.84300
O352        O  0.68273003  0.61695472  0.67614988    -0.80600
C353        C  0.71564992  0.43563384  0.49986451    -0.10500
C354        C  0.68817651  0.43949295  0.51131950     0.06600
C355        C  0.66856960  0.41662990  0.51029122    -0.09300
C356        C  0.67696171  0.38993654  0.49971113    -0.10900
C357        C  0.70524713  0.38559567  0.49077241    -0.00700
C358        C  0.72411122  0.40892235  0.48984320    -0.09800
C359        C  0.68130324  0.46639979  0.52661220     0.06700
H360        H  0.64705159  0.41921172  0.51843957     0.08600
H361        H  0.66178433  0.37249350  0.49958037     0.12000
H362        H  0.74602514  0.40591139  0.48297617     0.12300
H363        H  0.73124858  0.45276461  0.50041180     0.08600
C364        C  0.68923482  0.49299686  0.51515806    -0.10500
C365        C  0.68545190  0.51806332  0.53094130    -0.09800
C366        C  0.67396189  0.51710316  0.55871899    -0.00700
C367        C  0.66561068  0.49050149  0.56996286    -0.10900
C368        C  0.66911401  0.46546998  0.55403480    -0.09300
H369        H  0.69856875  0.49436005  0.49403079     0.08600
H370        H  0.69180999  0.53819249  0.52145789     0.12300
H371        H  0.65635334  0.48899664  0.59110832     0.12000
H372        H  0.66314247  0.44523728  0.56355831     0.08600
C373        C  0.47447939  0.49528630  0.68210774    -0.10500
C374        C  0.47871126  0.50600059  0.65435892     0.06600
C375        C  0.45675919  0.50262324  0.63382555    -0.09300
C376        C  0.43043622  0.49037752  0.64146894    -0.10900
C377        C  0.42553294  0.48207041  0.66986297    -0.00700
C378        C  0.44810367  0.48357490  0.68978716    -0.09800
C379        C  0.50509260  0.52250193  0.64781835     0.06700
H380        H  0.45970398  0.51022561  0.61213298     0.08600
H381        H  0.41347819  0.48874415  0.62566223     0.12000
H382        H  0.44457335  0.47735927  0.71183235     0.12300
H383        H  0.49094354  0.49763052  0.69838037     0.08600
C384        C  0.50326503  0.54943397  0.63460578    -0.10500
C385        C  0.52789947  0.56607625  0.63050451    -0.09800
C386        C  0.55494864  0.55600180  0.63926877    -0.00700
C387        C  0.55670579  0.52887635  0.65221575    -0.10900
C388        C  0.53207263  0.51242182  0.65658282    -0.09300
H389        H  0.48265684  0.55790200  0.62804666     0.08600
H390        H  0.52577892  0.58673412  0.62028532     0.12300
H391        H  0.57717545  0.52031202  0.65906688     0.12000
H392        H  0.53409716  0.49174226  0.66679729     0.08600
C393        C  0.97227337  0.88331366  0.20934471    -0.10500
C394        C  0.97814671  0.87494880  0.23766076     0.06600
C395        C  0.95761119  0.88050744  0.25890499    -0.09300
C396        C  0.93113204  0.89277249  0.25161573    -0.10900
C397        C  0.92463134  0.89896819  0.22294396    -0.00700
C398        C  0.94575264  0.89508388  0.20208005    -0.09800
C399        C  0.00481777  0.85887101  0.24435434     0.06700
H400        H  0.96180202  0.87473023  0.28098950     0.08600
H401        H  0.91524911  0.89611305  0.26804804     0.12000
H402        H  0.94096315  0.89968233  0.17983277     0.12300
H403        H  0.98756118  0.87923505  0.19249754     0.08600
C404        C  0.03118583  0.86744720  0.23276752    -0.10500
C405        C  0.05600891  0.85145544  0.23781401    -0.09800
C406        C  0.05500046  0.82626426  0.25423603    -0.00700
C407        C  0.02858384  0.81758925  0.26568650    -0.10900
C408        C  0.00380522  0.83382485  0.26095453    -0.09300
H409        H  0.03262618  0.88666432  0.21993434     0.08600
H410        H  0.07603276  0.85881802  0.22878438     0.12300
H411        H  0.02713689  0.79846489  0.27865071     0.12000
H412        H  0.98369547  0.82647795  0.26980336     0.08600
C413        C  0.95899499  0.98819241  0.15683344    -0.10500
C414        C  0.97553306  0.00874721  0.17142996     0.06600
C415        C  0.96656166  0.01835732  0.19824505    -0.09300
C416        C  0.94090928  0.00868359  0.20980971    -0.10900
C417        C  0.92333354  0.98948984  0.19466941    -0.00700
C418        C  0.93290973  0.97858143  0.16843001    -0.09800
C419        C  0.00100481  0.02224876  0.15845790     0.06700
H420        H  0.97912083  0.03400198  0.20990659     0.08600
H421        H  0.93415433  0.01697792  0.23031114     0.12000
H422        H  0.91972070  0.96370075  0.15650372     0.12300
H423        H  0.96567749  0.98052658  0.13606509     0.08600
C424        C  0.02719751  0.00774669  0.15700147    -0.10500
C425        C  0.05212703  0.02228411  0.14870666    -0.09800
C426        C  0.05122771  0.05155824  0.14157930    -0.00700
C427        C  0.02465928  0.06564010  0.14217217    -0.10900
C428        C  0.99989130  0.05118138  0.15071260    -0.09300
H429        H  0.02853726  0.98551550  0.16328407     0.08600
H430        H  0.07218038  0.01070688  0.14834167     0.12300
H431        H  0.02309334  0.08806815  0.13674280     0.12000
H432        H  0.97987200  0.06277026  0.15198131     0.08600
C433        C  0.21418624  0.95135307  0.40083244    -0.10500
C434        C  0.19350421  0.95011164  0.37872506     0.06600
C435        C  0.17953408  0.97572878  0.37090636    -0.09300
C436        C  0.18725998  0.00175077  0.38353087    -0.10900
C437        C  0.20984501  0.00299599  0.40340602    -0.00700
C438        C  0.22262731  0.97748698  0.41249562    -0.09800
C439        C  0.18787905  0.92272594  0.36293329     0.06700
H440        H  0.16367421  0.97621070  0.35395614     0.08600
H441        H  0.17700566  0.02120482  0.37629794     0.12000
H442        H  0.24045372  0.97799339  0.42740217     0.12300
H443        H  0.22474657  0.93231346  0.40861622     0.08600
C444        C  0.20908015  0.90127913  0.36145212    -0.10500
C445        C  0.20403128  0.87583359  0.34662869    -0.09800
C446        C  0.17819189  0.87158082  0.33185701    -0.00700
C447        C  0.15718214  0.89291763  0.33261851    -0.10900
C448        C  0.16173474  0.91794164  0.34836257    -0.09300
H449        H  0.22989330  0.90407525  0.37133083     0.08600
H450        H  0.22054236  0.85960346  0.34630427     0.12300
H451        H  0.13682028  0.88978992  0.32180963     0.12000
H452        H  0.14444785  0.93324184  0.34931573     0.08600
C453        C  0.18838410  0.04669056  0.25623349    -0.10500
C454        C  0.20334848  0.06722104  0.27246295     0.06600
C455        C  0.20985591  0.09355085  0.25942934    -0.09300
C456        C  0.20128203  0.09938034  0.23122509    -0.10900
C457        C  0.18600972  0.07902433  0.21508449    -0.00700
C458        C  0.17981863  0.05251383  0.22793287    -0.09800
C459        C  0.21154125  0.06169723  0.30303576     0.06700
H460        H  0.22175458  0.10972002  0.27102715     0.08600
H461        H  0.20660426  0.11996392  0.22208720     0.12000
H462        H  0.16796951  0.03636320  0.21625627     0.12300
H463        H  0.18270041  0.02632432  0.26563043     0.08600
C464        C  0.20946222  0.08362653  0.32343710    -0.10500
C465        C  0.21721326  0.07889811  0.35201787    -0.09800
C466        C  0.22711868  0.05209004  0.36117285    -0.00700
C467        C  0.22951632  0.03009840  0.34091782    -0.10900
C468        C  0.22157863  0.03477488  0.31218603    -0.09300
H469        H  0.20143445  0.10447309  0.31739786     0.08600
H470        H  0.21517606  0.09623492  0.36717161     0.12300
H471        H  0.23764961  0.00938090  0.34728256     0.12000
H472        H  0.22381008  0.01749056  0.29702962     0.08600
C473        C  0.37991898  0.24847052  0.73656801    -0.10500
C474        C  0.36245095  0.26159937  0.71567570     0.06600
C475        C  0.33824213  0.24663706  0.70564219    -0.09300
C476        C  0.33135376  0.21963057  0.71654352    -0.10900
C477        C  0.34857038  0.20663741  0.73767902    -0.00700
C478        C  0.37314739  0.22128075  0.74732634    -0.09800
C479        C  0.36862212  0.29115964  0.70512979     0.06700
H480        H  0.32407751  0.25614889  0.68986765     0.08600
H481        H  0.31233772  0.20898743  0.70849258     0.12000
H482        H  0.38692477  0.21192662  0.76353875     0.12300
H483        H  0.39888791  0.25921319  0.74458625     0.08600
C484        C  0.37789394  0.31257624  0.72414623    -0.10500
C485        C  0.38149013  0.34079168  0.71476564    -0.09800
C486        C  0.37609384  0.34835831  0.68608306    -0.00700
C487        C  0.36746890  0.32687444  0.66690604    -0.10900
C488        C  0.36386904  0.29864021  0.67627180    -0.09300
H489        H  0.38132678  0.30776964  0.74658290     0.08600
H490        H  0.38752590  0.35689755  0.73026322     0.12300
H491        H  0.36332120  0.33194717  0.64464072     0.12000
H492        H  0.35715675  0.28265917  0.66091131     0.08600
C493        C  0.23822225  0.07757281  0.57852831    -0.10500
C494        C  0.24641641  0.05489509  0.59669379     0.06600
C495        C  0.24233970  0.02678680  0.58653632    -0.09300
C496        C  0.23099405  0.02171330  0.55903872    -0.10900
C497        C  0.22446910  0.04454611  0.54057506    -0.00700
C498        C  0.22773438  0.07246379  0.55092053    -0.09800
C499        C  0.25878819  0.06091572  0.62594107     0.06700
H500        H  0.24825816  0.00858899  0.59954275     0.08600
H501        H  0.22765413  0.99991950  0.55213075     0.12000
H502        H  0.22246512  0.09055518  0.53741070     0.12300
H503        H  0.23966986  0.09950439  0.58553193     0.08600
C504        C  0.27347437  0.08671935  0.63135715    -0.10500
C505        C  0.28295171  0.09370740  0.65892280    -0.09800
C506        C  0.27906295  0.07473803  0.68183442    -0.00700
C507        C  0.26593485  0.04827435  0.67647072    -0.10900
C508        C  0.25555562  0.04158478  0.64895406    -0.09300
H509        H  0.27773235  0.10178400  0.61433826     0.08600
H510        H  0.29359147  0.11400451  0.66231109     0.12300
H511        H  0.26273018  0.03321557  0.69378623     0.12000
H512        H  0.24428551  0.02160969  0.64607345     0.08600
C513        C  0.18690731  0.83684134  0.13931320    -0.10500
C514        C  0.21109819  0.82405895  0.12695008     0.06600
C515        C  0.22615993  0.80338431  0.14290328    -0.09300
C516        C  0.21687805  0.79521590  0.17024918    -0.10900
C517        C  0.19267722  0.80797857  0.18261525    -0.00700
C518        C  0.17801115  0.82914960  0.16693459    -0.09800
C519        C  0.22007024  0.83143719  0.09718182     0.06700
H520        H  0.24471564  0.79296925  0.13388693     0.08600
H521        H  0.22868118  0.77889391  0.18176137     0.12000
H522        H  0.15921020  0.83929229  0.17576124     0.12300
H523        H  0.17491210  0.85288430  0.12760598     0.08600
C524        C  0.19989359  0.83201999  0.07470403    -0.10500
C525        C  0.20859756  0.83656175  0.04635731    -0.09800
C526        C  0.23755116  0.84151947  0.03981496    -0.00700
C527        C  0.25764218  0.84155179  0.06239667    -0.10900
C528        C  0.24903908  0.83648258  0.09069907    -0.09300
H529        H  0.17751587  0.82760457  0.07889492     0.08600
H530        H  0.19284781  0.83460425  0.02945325     0.12300
H531        H  0.28016118  0.84498812  0.05807067     0.12000
H532        H  0.26508416  0.83627309  0.10754041     0.08600
C533        C  0.22702644  0.93348821  0.00406150    -0.10500
C534        C  0.19874633  0.93540222  0.01397377     0.06600
C535        C  0.18052636  0.91160903  0.01086595    -0.09300
C536        C  0.19090154  0.88597810  0.99942635    -0.10900
C537        C  0.21979557  0.88355991  0.99172496    -0.00700
C538        C  0.23744215  0.90781807  0.99318622    -0.09800
C539        C  0.18916259  0.96161942  0.02901262     0.06700
H540        H  0.15847573  0.91269011  0.01785228     0.08600
H541        H  0.17673495  0.86775900  0.99774156     0.12000
H542        H  0.25985516  0.90627525  0.98751732     0.12300
H543        H  0.24160089  0.95137853  0.00626355     0.08600
C544        C  0.17514866  0.95974311  0.05550598    -0.10500
C545        C  0.16836992  0.98447072  0.07087806    -0.09800
C546        C  0.17515082  0.01164013  0.05991149    -0.00700
C547        C  0.18862832  0.01344458  0.03311307    -0.10900
C548        C  0.19572336  0.98874303  0.01795887    -0.09300
H549        H  0.17016466  0.93909676  0.06471206     0.08600
H550        H  0.15782895  0.98230634  0.09135174     0.12300
H551        H  0.19407399  0.03399615  0.02396868     0.12000
H552        H  0.20644001  0.99082420  0.99756564     0.08600
C553        C  0.27970102  0.92205263  0.90157712    -0.10500
C554        C  0.26438943  0.93392305  0.87833047     0.06600
C555        C  0.24059414  0.91910124  0.86744464    -0.09300
C556        C  0.23297078  0.89257053  0.87852142    -0.10900
C557        C  0.24915943  0.87976332  0.90049924    -0.00700
C558        C  0.27218015  0.89504624  0.91255213    -0.09800
C559        C  0.27340486  0.96097631  0.86422216     0.06700
H560        H  0.22799869  0.92796268  0.85002705     0.08600
H561        H  0.21465477  0.88157359  0.86939209     0.12000
H562        H  0.28486785  0.88571441  0.92961732     0.12300
H563        H  0.29808854  0.93313477  0.91045677     0.08600
C564        C  0.27917437  0.98578879  0.88009633    -0.10500
C565        C  0.28560129  0.01157045  0.86609817    -0.09800
C566        C  0.28690124  0.01288489  0.83597857    -0.00700
C567        C  0.28180123  0.98784085  0.82027568    -0.10900
C568        C  0.27497325  0.96230562  0.83419361    -0.09300
H569        H  0.27800992  0.98539067  0.90324194     0.08600
H570        H  0.28971640  0.03043389  0.87884287     0.12300
H571        H  0.28273909  0.98803509  0.79711653     0.12000
H572        H  0.27089461  0.94345052  0.82141327     0.08600
C573        C  0.28944912  0.14680818  0.05149564    -0.10500
C574        C  0.30670755  0.15990022  0.07256696     0.06600
C575        C  0.29477954  0.16471234  0.09969358    -0.09300
C576        C  0.26648603  0.15673293  0.10565674    -0.10900
C577        C  0.24907654  0.14376394  0.08464628    -0.00700
C578        C  0.26095793  0.13894400  0.05741748    -0.09800
C579        C  0.33707416  0.16840692  0.06666570     0.06700
H580        H  0.30754249  0.17429857  0.11657470     0.08600
H581        H  0.25831620  0.16061029  0.12693339     0.12000
H582        H  0.24828767  0.12897495  0.04069733     0.12300
H583        H  0.29789890  0.14293094  0.03032712     0.08600
C584        C  0.35580013  0.15006298  0.05207936    -0.10500
C585        C  0.38478516  0.15733633  0.04844535    -0.09800
C586        C  0.39574759  0.18347627  0.05869705    -0.00700
C587        C  0.37673777  0.20207178  0.07264247    -0.10900
C588        C  0.34793030  0.19460188  0.07668970    -0.09300
H589        H  0.34828905  0.12954533  0.04443600     0.08600
H590        H  0.39872542  0.14192492  0.03849518     0.12300
H591        H  0.38413128  0.22245285  0.08070638     0.12000
H592        H  0.33407139  0.20940566  0.08772356     0.08600
C593        C  0.43177463  0.13593395  0.97178971    -0.10500
C594        C  0.41374868  0.15473212  0.95655335     0.06600
C595        C  0.40935734  0.18233894  0.96704417    -0.09300
C596        C  0.42152193  0.19065103  0.99295961    -0.10900
C597        C  0.43799838  0.17145186  0.00919313    -0.00700
C598        C  0.44383438  0.14425935  0.99813837    -0.09800
C599        C  0.39832924  0.14582232  0.93032635     0.06700
H600        H  0.39595489  0.19729251  0.95540885     0.08600
H601        H  0.41712575  0.21182556  0.00108935     0.12000
H602        H  0.45649384  0.12922952  0.01044445     0.12300
H603        H  0.43548923  0.11453787  0.96390022     0.08600
C604        C  0.41333331  0.13682128  0.90609061    -0.10500
C605        C  0.39865082  0.13146127  0.88042545    -0.09800
C606        C  0.36865538  0.13448070  0.87875530    -0.00700
C607        C  0.35362682  0.14257304  0.90337738    -0.10900
C608        C  0.36836597  0.14846594  0.92882730    -0.09300
H609        H  0.43645062  0.13482051  0.90679184     0.08600
H610        H  0.41076678  0.12488656  0.86188507     0.12300
H611        H  0.33054300  0.14492668  0.90280320     0.12000
H612        H  0.35641210  0.15537313  0.94736568     0.08600
C613        C  0.61605366  0.18637416  0.08490737    -0.10500
C614        C  0.63339169  0.19712840  0.06275636     0.06600
C615        C  0.62219349  0.19656561  0.03461246    -0.09300
C616        C  0.59426287  0.18653359  0.02910558    -0.10900
C617        C  0.57646265  0.17779872  0.05167341    -0.00700
C618        C  0.58803957  0.17717868  0.07948204    -0.09800
C619        C  0.66250484  0.20938810  0.06943638     0.06700
H620        H  0.63466151  0.20445619  0.01682114     0.08600
H621        H  0.58652584  0.18597222  0.00723833     0.12000
H622        H  0.57514421  0.17002974  0.09732429     0.12300
H623        H  0.62396006  0.18512573  0.10668054     0.08600
C624        C  0.66790280  0.22224737  0.09620007    -0.10500
C625        C  0.69496617  0.23311599  0.10314433    -0.09800
C626        C  0.71739872  0.23235061  0.08330973    -0.00700
C627        C  0.71214736  0.22027802  0.05625540    -0.10900
C628        C  0.68511983  0.20862921  0.04949775    -0.09300
H629        H  0.65111507  0.22435279  0.11191238     0.08600
H630        H  0.69821776  0.24264998  0.12401855     0.12300
H631        H  0.72912879  0.21924054  0.04058959     0.12000
H632        H  0.68218311  0.19866970  0.02882341     0.08600
C633        C  0.87708835  0.06995594  0.17004847    -0.10500
C634        C  0.86582449  0.09068771  0.18859974     0.06600
C635        C  0.86044219  0.08282552  0.21714608    -0.09300
C636        C  0.86541670  0.05485676  0.22667250    -0.10900
C637        C  0.87584101  0.03386329  0.20793048    -0.00700
C638        C  0.88187244  0.04189564  0.17953882    -0.09800
C639        C  0.85881282  0.12007491  0.17806960     0.06700
H640        H  0.85223726  0.09833376  0.23215659     0.08600
H641        H  0.86075375  0.04959141  0.24873129     0.12000
H642        H  0.88924399  0.02625094  0.16426435     0.12300
H643        H  0.88119252  0.07514615  0.14785252     0.08600
C644        C  0.87727876  0.13472533  0.15938778    -0.10500
C645        C  0.87051916  0.16224206  0.14952161    -0.09800
C646        C  0.84494193  0.17573292  0.15780605    -0.00700
C647        C  0.82638149  0.16097812  0.17630746    -0.10900
C648        C  0.83329216  0.13361956  0.18640675    -0.09300
H649        H  0.89716674  0.12502793  0.15265162     0.08600
H650        H  0.88525926  0.17286186  0.13518554     0.12300
H651        H  0.80646456  0.17060138  0.18307333     0.12000
H652        H  0.81836112  0.12283302  0.20041629     0.08600
C653        C  0.76237648  0.33506261  0.32195071    -0.10500
C654        C  0.74350548  0.32429856  0.30099339     0.06600
C655        C  0.71511453  0.31816828  0.30894225    -0.09300
C656        C  0.70593371  0.32236638  0.33714056    -0.10900
C657        C  0.72489514  0.33272585  0.35823486    -0.00700
C658        C  0.75326187  0.33899517  0.35023063    -0.09800
C659        C  0.75363166  0.31838885  0.27129168     0.06700
H660        H  0.69993363  0.31013342  0.29328207     0.08600
H661        H  0.68391909  0.31742750  0.34242457     0.12000
H662        H  0.76873678  0.34617553  0.36599182     0.12300
H663        H  0.78449962  0.33955837  0.31669179     0.08600
C664        C  0.77161854  0.33768006  0.25678462    -0.10500
C665        C  0.78144262  0.33163846  0.22907832    -0.09800
C666        C  0.77378819  0.30598936  0.21533439    -0.00700
C667        C  0.75573171  0.28680258  0.22988546    -0.10900
C668        C  0.74572304  0.29296391  0.25737907    -0.09300
H669        H  0.77794080  0.35755394  0.26681196     0.08600
H670        H  0.79531821  0.34690272  0.21857528     0.12300
H671        H  0.74937805  0.26683066  0.22007726     0.12000
H672        H  0.73221916  0.27746999  0.26803279     0.08600
C673        C  0.09972495  0.15429182  0.96747263    -0.10500
C674        C  0.06975883  0.15710574  0.96562041     0.06600
C675        C  0.05317763  0.15021496  0.98962818    -0.09300
C676        C  0.06637674  0.14137843  0.01520092    -0.10900
C677        C  0.09641828  0.13878558  0.01714405    -0.00700
C678        C  0.11288008  0.14504933  0.99283974    -0.09800
C679        C  0.05630315  0.16871550  0.93912677     0.06700
H680        H  0.03008462  0.15241370  0.98883576     0.08600
H681        H  0.05303638  0.13657556  0.03347480     0.12000
H682        H  0.13601045  0.14326722  0.99355045     0.12300
H683        H  0.11301338  0.15933133  0.94921171     0.08600
C684        C  0.06766512  0.19348960  0.92673882    -0.10500
C685        C  0.05645351  0.20411343  0.90119051    -0.09800
C686        C  0.03398380  0.18996327  0.88684414    -0.00700
C687        C  0.02167510  0.16577465  0.89967082    -0.10900
C688        C  0.03270348  0.15528863  0.92577094    -0.09300
H689        H  0.08537071  0.20464125  0.93683894     0.08600
H690        H  0.06583263  0.22325429  0.89215889     0.12300
H691        H  0.00430479  0.15456791  0.88912738     0.12000
H692        H  0.02346770  0.13618559  0.93502918     0.08600
C693        C  0.11057785  0.16360615  0.83714477    -0.10500
C694        C  0.13152896  0.18259101  0.82682447     0.06600
C695        C  0.12364323  0.21112791  0.82163335    -0.09300
C696        C  0.09544791  0.22028343  0.82614155    -0.10900
C697        C  0.07448232  0.20120320  0.83612059    -0.00700
C698        C  0.08241192  0.17278300  0.84167496    -0.09800
C699        C  0.16119950  0.17243145  0.82073807     0.06700
H700        H  0.13930648  0.22641341  0.81408793     0.08600
H701        H  0.09001932  0.24234739  0.82181796     0.12000
H702        H  0.06662631  0.15740978  0.84878109     0.12300
H703        H  0.11574813  0.14138867  0.84093830     0.08600
C704        C  0.17499380  0.15297641  0.83917635    -0.10500
C705        C  0.20248161  0.14279671  0.83300374    -0.09800
C706        C  0.21681503  0.15157695  0.80807747    -0.00700
C707        C  0.20311503  0.17116510  0.78970998    -0.10900
C708        C  0.17573063  0.18156692  0.79603804    -0.09300
H709        H  0.16457746  0.14571892  0.85852144     0.08600
H710        H  0.21235394  0.12770936  0.84760775     0.12300
H711        H  0.21353676  0.17843641  0.77036848     0.12000
H712        H  0.16564318  0.19628236  0.78120352     0.08600
C713        C  0.92736047  0.20646265  0.93944416    -0.10500
C714        C  0.91774694  0.23445028  0.94397328     0.06600
C715        C  0.92182077  0.25499135  0.92233445    -0.09300
C716        C  0.93394517  0.24721985  0.89608593    -0.10900
C717        C  0.94145793  0.21872845  0.89098663    -0.00700
C718        C  0.93901332  0.19870115  0.91320731    -0.09800
C719        C  0.90204291  0.24137309  0.97056967     0.06700
H720        H  0.91502334  0.27683765  0.92551933     0.08600
H721        H  0.93622589  0.26306911  0.87938157     0.12000
H722        H  0.94452338  0.17657495  0.90949232     0.12300
H723        H  0.92436330  0.19015537  0.95562261     0.08600
C724        C  0.91214888  0.23151480  0.99716750    -0.10500
C725        C  0.89640470  0.23622113  0.02203233    -0.09800
C726        C  0.87000839  0.25064905  0.02086534    -0.00700
C727        C  0.85991121  0.26059716  0.99423987    -0.10900
C728        C  0.87585721  0.25612172  0.96935592    -0.09300
H729        H  0.93229075  0.22015424  0.99871346     0.08600
H730        H  0.90489730  0.22840263  0.04220020     0.12300
H731        H  0.83979499  0.27198503  0.99265475     0.12000
H732        H  0.86738918  0.26358681  0.94904105     0.08600
C733        C  0.78518068  0.48022268  0.37995212    -0.10500
C734        C  0.77460262  0.45735377  0.36365825     0.06600
C735        C  0.77412694  0.45984316  0.33362711    -0.09300
C736        C  0.78343247  0.48490909  0.32017322    -0.10900
C737        C  0.79288427  0.50827910  0.33648065    -0.00700
C738        C  0.79394498  0.50554429  0.36652002    -0.09800
C739        C  0.76199061  0.43179172  0.37768540     0.06700
H740        H  0.76617322  0.44243686  0.32056607     0.08600
H741        H  0.78235545  0.48633607  0.29704693     0.12000
H742        H  0.80134890  0.52311309  0.37966762     0.12300
H743        H  0.78563034  0.47889962  0.40310239     0.08600
C744        C  0.77685989  0.41618367  0.39890364    -0.10500
C745        C  0.76503756  0.39093557  0.41026541    -0.09800
C746        C  0.73814040  0.38130806  0.40068740    -0.00700
C747        C  0.72276493  0.39792900  0.38081723    -0.10900
C748        C  0.73460320  0.42265480  0.36928140    -0.09300
H749        H  0.79798816  0.42294624  0.40585117     0.08600
H750        H  0.77722510  0.37840398  0.42553123     0.12300
H751        H  0.70181598  0.39105487  0.37343021     0.12000
H752        H  0.72243061  0.43455688  0.35347427     0.08600
C753        C  0.88090592  0.75052792  0.25380314    -0.10500
C754        C  0.86440130  0.76457114  0.23276440     0.06600
C755        C  0.84133123  0.74965680  0.22020975    -0.09300
C756        C  0.83467276  0.72169413  0.22875291    -0.10900
C757        C  0.85113685  0.70764568  0.24980442    -0.00700
C758        C  0.87451038  0.72237859  0.26204715    -0.09800
C759        C  0.87061802  0.79485161  0.22442843     0.06700
H760        H  0.82795535  0.75987609  0.20420421     0.08600
H761        H  0.81654033  0.71105799  0.21884055     0.12000
H762        H  0.88760400  0.71231578  0.27838724     0.12300
H763        H  0.89891877  0.76128441  0.26379600     0.08600
C764        C  0.87691027  0.81557080  0.24532926    -0.10500
C765        C  0.88058816  0.84435917  0.23773654    -0.09800
C766        C  0.87874457  0.85316427  0.20898849    -0.00700
C767        C  0.87308249  0.83233881  0.18802856    -0.10900
C768        C  0.86903779  0.80361533  0.19562628    -0.09300
H769        H  0.87771456  0.80972947  0.26776107     0.08600
H770        H  0.88333306  0.85986380  0.25458568     0.12300
H771        H  0.87132645  0.83836234  0.16569575     0.12000
H772        H  0.86448302  0.78823922  0.17892953     0.08600
C773        C  0.06864722  0.30297671  0.18620260    -0.10500
C774        C  0.09662666  0.29153684  0.18554856     0.06600
C775        C  0.11908606  0.30847865  0.19657978    -0.09300
C776        C  0.11410061  0.33621207  0.20638461    -0.10900
C777        C  0.08641938  0.34799074  0.20612654    -0.00700
C778        C  0.06358046  0.33060672  0.19683821    -0.09800
C779        C  0.10273643  0.26233888  0.17350407     0.06700
H780        H  0.14076292  0.30041716  0.19776141     0.08600
H781        H  0.13221252  0.34869455  0.21383472     0.12000
H782        H  0.04175407  0.33823067  0.19778055     0.12300
H783        H  0.05059609  0.29084841  0.17814139     0.08600
C784        C  0.08227023  0.24012170  0.17437858    -0.10500
C785        C  0.08866318  0.21279309  0.16373686    -0.09800
C786        C  0.11588597  0.20674434  0.15253706    -0.00700
C787        C  0.13616028  0.22887059  0.15130372    -0.10900
C788        C  0.12958761  0.25626639  0.16119982    -0.09300
H789        H  0.06146871  0.24353221  0.18385769     0.08600
H790        H  0.07257504  0.19616520  0.16500838     0.12300
H791        H  0.15715374  0.22507225  0.14230366     0.12000
H792        H  0.14570566  0.27270925  0.15896445     0.08600
C793        C  0.99118966  0.39037874  0.18638645    -0.10500
C794        C  0.99126283  0.37405012  0.16121764     0.06600
C795        C  0.01737334  0.37005336  0.14678037    -0.09300
C796        C  0.04307661  0.38083875  0.15827771    -0.10900
C797        C  0.04303258  0.39513085  0.18465658    -0.00700
C798        C  0.01680295  0.40052672  0.19808061    -0.09800
C799        C  0.96457577  0.35912625  0.15207406     0.06700
H800        H  0.01801504  0.35768839  0.12724082     0.08600
H801        H  0.06317515  0.37620041  0.14781484     0.12000
H802        H  0.01642516  0.41092565  0.21875435     0.12300
H803        H  0.97154535  0.39358699  0.19817122     0.08600
C804        C  0.96504485  0.32989811  0.14534222    -0.10500
C805        C  0.93948314  0.31496628  0.14016902    -0.09800
C806        C  0.91285159  0.32895039  0.14153144    -0.00700
C807        C  0.91252578  0.35837549  0.14753739    -0.10900
C808        C  0.93804529  0.37324049  0.15279666    -0.09300
H809        H  0.98513045  0.31834845  0.14507321     0.08600
H810        H  0.94058383  0.29238535  0.13542199     0.12300
H811        H  0.89249061  0.36996360  0.14838404     0.12000
H812        H  0.93703179  0.39578322  0.15777480     0.08600
C813        C  0.09005268  0.63332364  0.23762019    -0.10500
C814        C  0.11067837  0.61692175  0.22322030     0.06600
C815        C  0.13721470  0.62977642  0.21693202    -0.09300
C816        C  0.14325886  0.65785801  0.22541934    -0.10900
C817        C  0.12296018  0.67404462  0.24048889    -0.00700
C818        C  0.09612697  0.66146068  0.24619165    -0.09800
C819        C  0.10519223  0.58624807  0.21576416     0.06700
H820        H  0.15345958  0.61804647  0.20544594     0.08600
H821        H  0.16407485  0.66675929  0.22044455     0.12000
H822        H  0.07993760  0.67317623  0.25777190     0.12300
H823        H  0.06948794  0.62411702  0.24304471     0.08600
C824        C  0.12709962  0.56588618  0.21914002    -0.10500
C825        C  0.12240140  0.53716901  0.21232961    -0.09800
C826        C  0.09562629  0.52782936  0.20215317    -0.00700
C827        C  0.07362590  0.54800049  0.19852963    -0.10900
C828        C  0.07829982  0.57689097  0.20542628    -0.09300
H829        H  0.14789713  0.57208256  0.22746998     0.08600
H830        H  0.13971645  0.52205953  0.21531226     0.12300
H831        H  0.05289846  0.54140761  0.19030749     0.12000
H832        H  0.06101898  0.59197649  0.20226440     0.08600
C833        C  0.02351762  0.51894896  0.25482357    -0.10500
C834        C  0.99675675  0.51007726  0.24380532     0.06600
C835        C  0.99619950  0.48712116  0.22439203    -0.09300
C836        C  0.02161291  0.47545422  0.21408740    -0.10900
C837        C  0.04824552  0.48568561  0.22355532    -0.00700
C838        C  0.04896422  0.50652533  0.24511700    -0.09800
C839        C  0.96978003  0.52574073  0.25079519     0.06700
H840        H  0.97612898  0.47884678  0.21615219     0.08600
H841        H  0.02049993  0.45976844  0.19717441     0.12000
H842        H  0.06928018  0.51447529  0.25309582     0.12300
H843        H  0.02504133  0.53650634  0.26976226     0.08600
C844        C  0.96603745  0.53915683  0.27749175    -0.10500
C845        C  0.94094812  0.55445861  0.28330433    -0.09800
C846        C  0.91884206  0.55604584  0.26285601    -0.00700
C847        C  0.92232058  0.54262640  0.23638435    -0.10900
C848        C  0.94764395  0.52808922  0.23022605    -0.09300
H849        H  0.98227758  0.53760907  0.29404467     0.08600
H850        H  0.93848868  0.56447514  0.30402717     0.12300
H851        H  0.90559688  0.54384528  0.22024471     0.12000
H852        H  0.94991218  0.51903369  0.20907745     0.08600
C853        C  0.24525664  0.94908042  0.49738545    -0.10500
C854        C  0.26820994  0.94945969  0.51712159     0.06600
C855        C  0.28144962  0.97595591  0.52305343    -0.09300
C856        C  0.27054160  0.00135146  0.51138094    -0.10900
C857        C  0.24565379  0.00086080  0.49443194    -0.00700
C858        C  0.23379298  0.97446744  0.48672639    -0.09800
C859        C  0.27668325  0.92275862  0.53280066     0.06700
H860        H  0.29906569  0.97749727  0.53811224     0.08600
H861        H  0.27993852  0.02157129  0.51761744     0.12000
H862        H  0.21440734  0.97362864  0.47390290     0.12300
H863        H  0.23517243  0.92926208  0.49102573     0.08600
C864        C  0.25635295  0.90098075  0.53788896    -0.10500
C865        C  0.26393882  0.87604339  0.55254989    -0.09800
C866        C  0.29168532  0.87265371  0.56351326    -0.00700
C867        C  0.31193750  0.89438102  0.55925995    -0.10900
C868        C  0.30467220  0.91898155  0.54371595    -0.09300
H869        H  0.23431127  0.90318094  0.53096510     0.08600
H870        H  0.24797806  0.85954602  0.55575621     0.12300
H871        H  0.33363064  0.89193511  0.56728468     0.12000
H872        H  0.32117242  0.93477226  0.54002035     0.08600
C873        C  0.38546628  0.63190434  0.64213815    -0.10500
C874        C  0.37068075  0.61830836  0.66454328     0.06600
C875        C  0.34968103  0.63387719  0.67927931    -0.09300
C876        C  0.34306075  0.66197267  0.67134135    -0.10900
C877        C  0.35755942  0.67547601  0.64874452    -0.00700
C878        C  0.37919292  0.66025526  0.63452249    -0.09800
C879        C  0.37621388  0.58774104  0.67197501     0.06700
H880        H  0.33770109  0.62401134  0.69643517     0.08600
H881        H  0.32635510  0.67309561  0.68279947     0.12000
H882        H  0.39069462  0.66998280  0.61695877     0.25900
H883        H  0.40188307  0.62057360  0.63047883     0.08600
C884        C  0.37856527  0.56697899  0.65040608    -0.10500
C885        C  0.38123313  0.53796263  0.65742111    -0.09800
C886        C  0.38232768  0.52900589  0.68614343    -0.00700
C887        C  0.38050409  0.54980284  0.70770001    -0.10900
C888        C  0.37748000  0.57877833  0.70072462    -0.09300
H889        H  0.37699879  0.57304512  0.62806816     0.08600
H890        H  0.38088854  0.52247577  0.64034397     0.12300
H891        H  0.38097790  0.54357132  0.73003516     0.12000
H892        H  0.37587731  0.59420246  0.71786511     0.08600
C893        C  0.28313081  0.83392507  0.75582514    -0.10500
C894        C  0.26903522  0.81283337  0.77202664     0.06600
C895        C  0.26400599  0.78609498  0.75923937    -0.09300
C896        C  0.27274044  0.78060456  0.73112874    -0.10900
C897        C  0.28673239  0.80170536  0.71485350    -0.00700
C898        C  0.29179387  0.82846679  0.72761060    -0.09800
C899        C  0.25959209  0.81853275  0.80208734     0.06700
H900        H  0.25364438  0.76916680  0.77114332     0.08600
H901        H  0.26858806  0.75968502  0.72219193     0.12000
H902        H  0.30252050  0.84523895  0.71581081     0.12300
H903        H  0.28713708  0.85483551  0.76483700     0.08600
C904        C  0.27694205  0.83413997  0.82125882    -0.10500
C905        C  0.26847296  0.83841085  0.84974113    -0.09800
C906        C  0.24222997  0.82752716  0.85974955    -0.00700
C907        C  0.22472577  0.81232984  0.84042008    -0.10900
C908        C  0.23326834  0.80787378  0.81207003    -0.09300
H909        H  0.29753644  0.84232239  0.81448963     0.08600
H910        H  0.28291887  0.84951581  0.86411114     0.12300
H911        H  0.20431297  0.80374374  0.84722789     0.12000
H912        H  0.21912110  0.79614776  0.79788035     0.08600
C913        C  0.55135080  0.24301991  0.90859448    -0.10500
C914        C  0.56605220  0.24110869  0.93487832     0.06600
C915        C  0.59567686  0.24680700  0.93543103    -0.09300
C916        C  0.61032921  0.25354938  0.91017878    -0.10900
C917        C  0.59570379  0.25465603  0.88377132    -0.00700
C918        C  0.56596890  0.24963023  0.88339985    -0.09800
C919        C  0.55108912  0.23066778  0.96099221     0.06700
H920        H  0.60774220  0.24508132  0.95523618     0.08600
H921        H  0.63319399  0.25739290  0.91127745     0.12000
H922        H  0.55390001  0.25067747  0.86354952     0.12300
H923        H  0.52849870  0.23911379  0.90744891     0.08600
C924        C  0.55755757  0.24170872  0.98832411    -0.10500
C925        C  0.54658844  0.22863849  0.01301394    -0.09800
C926        C  0.52947912  0.20406521  0.01069886    -0.00700
C927        C  0.52107731  0.19460403  0.98345452    -0.10900
C928        C  0.53178014  0.20768495  0.95888467    -0.09300
H929        H  0.57197614  0.25969330  0.99063810     0.08600
H930        H  0.55320065  0.23628013  0.03389798     0.12300
H931        H  0.50800676  0.17560177  0.98124732     0.12000
H932        H  0.52644707  0.19848226  0.93828510     0.08600
C933        C  0.45950188  0.39443177  0.73727363    -0.10500
C934        C  0.47515809  0.37272245  0.72368754     0.06600
C935        C  0.46560014  0.36223872  0.69727692    -0.09300
C936        C  0.44024268  0.37222020  0.68518287    -0.10900
C937        C  0.42340901  0.39247198  0.69946675    -0.00700
C938        C  0.43358229  0.40420611  0.72524690    -0.09800
C939        C  0.50061131  0.35943568  0.73713746     0.06700
H940        H  0.47755602  0.34582991  0.68625495     0.08600
H941        H  0.43309831  0.36332753  0.66497538     0.12000
H942        H  0.42098703  0.41990231  0.73653295     0.12300
H943        H  0.46668713  0.40286065  0.75766505     0.08600
C944        C  0.52557176  0.37528687  0.74246877    -0.10500
C945        C  0.55064441  0.36153471  0.75172929    -0.09800
C946        C  0.55101562  0.33174795  0.75614872    -0.00700
C947        C  0.52559880  0.31620997  0.75177653    -0.10900
C948        C  0.50075611  0.32988083  0.74216528    -0.09300
H949        H  0.52593699  0.39806597  0.73845755     0.08600
H950        H  0.56982100  0.37416719  0.75507813     0.12300
H951        H  0.52507388  0.29332443  0.75504778     0.12000
H952        H  0.48167273  0.31728385  0.73811193     0.08600
C953        C  0.67623117  0.34069138  0.64172429    -0.10500
C954        C  0.69909033  0.32686087  0.62801149     0.06600
C955        C  0.71417675  0.30566990  0.64326747    -0.09300
C956        C  0.70633884  0.29817038  0.67126567    -0.10900
C957        C  0.68358203  0.31206701  0.68503400    -0.00700
C958        C  0.66878285  0.33361805  0.66997541    -0.09800
C959        C  0.70678757  0.33383356  0.59770553     0.06700
H960        H  0.73168064  0.29438757  0.63326827     0.08600
H961        H  0.71819574  0.28150961  0.68220993     0.12000
H962        H  0.65103604  0.34463979  0.67984944     0.12300
H963        H  0.66422596  0.35714757  0.63063367     0.08600
C964        C  0.68548966  0.33602160  0.57635706    -0.10500
C965        C  0.69288203  0.34001450  0.54750724    -0.09800
C966        C  0.72170452  0.34277395  0.53931296    -0.00700
C967        C  0.74294284  0.34131706  0.56077974    -0.10900
C968        C  0.73561479  0.33685182  0.58955184    -0.09300
H969        H  0.66312546  0.33319304  0.58178648     0.08600
H970        H  0.67613020  0.33916325  0.53152535     0.12300
H971        H  0.76537824  0.34295871  0.55517454     0.12000
H972        H  0.75254596  0.33543117  0.60543140     0.08600
C973        C  0.79276873  0.25008513  0.84633518    -0.10500
C974        C  0.80632254  0.22801622  0.83122183     0.06600
C975        C  0.79106326  0.21443221  0.80901714    -0.09300
C976        C  0.76312929  0.22296112  0.80182737    -0.10900
C977        C  0.74949710  0.24493025  0.81701481    -0.00700
C978        C  0.76459960  0.25824149  0.83951919    -0.09800
C979        C  0.83648452  0.21958372  0.83797221     0.06700
H980        H  0.80099796  0.19757873  0.79677320     0.08600
H981        H  0.75213144  0.21224235  0.78440616     0.12000
H982        H  0.75480975  0.27533117  0.85155390     0.12300
H983        H  0.80391846  0.26090185  0.86359721     0.08600
C984        C  0.85801883  0.24036976  0.84131598    -0.10500
C985        C  0.88674895  0.23238184  0.84526063    -0.09800
C986        C  0.89460280  0.20344811  0.84673170    -0.00700
C987        C  0.87293960  0.18269133  0.84411318    -0.10900
C988        C  0.84427730  0.19064261  0.83971256    -0.09300
H989        H  0.85281283  0.26282582  0.83954945     0.08600
H990        H  0.90293636  0.24887240  0.84561341     0.12300
H991        H  0.87825708  0.16021691  0.84498139     0.12000
H992        H  0.82817445  0.17411893  0.83742671     0.08600
C993        C  0.76963828  0.39547836  0.01897242    -0.10500
C994        C  0.77616452  0.42218689  0.03101299     0.06600
C995        C  0.78772670  0.42318916  0.05881833    -0.09300
C996        C  0.79267414  0.39804381  0.07430157    -0.10900
C997        C  0.78648758  0.37121118  0.06222672    -0.00700
C998        C  0.77495405  0.37025655  0.03430871    -0.09800
C999        C  0.76960375  0.44907881  0.01538695     0.06700
H1000       H  0.79250696  0.44352609  0.06877569     0.08600
H1001       H  0.80164439  0.39964991  0.09566802     0.12000
H1002       H  0.77007515  0.35000022  0.02425400     0.12300
H1003       H  0.76066087  0.39413868  0.99758342     0.08600
C1004       C  0.78993088  0.47124750  0.01372502    -0.10500
C1005       C  0.78241325  0.49783175  0.00206574    -0.09800
C1006       C  0.75429685  0.50285757  0.99260458    -0.00700
C1007       C  0.73454382  0.48018845  0.99267275    -0.10900
C1008       C  0.74215122  0.45351790  0.00378395    -0.09300
H1009       H  0.81139619  0.46818261  0.02210127     0.08600
H1010       H  0.79818284  0.51475495  0.00151146     0.12300
H1011       H  0.71266751  0.48374789  0.98567918     0.12000
H1012       H  0.72605187  0.43687056  0.00486579     0.08600
C1013       C  0.79061937  0.54762884  0.14124970    -0.10500
C1014       C  0.76784694  0.56228192  0.12790285     0.06600
C1015       C  0.75376935  0.58372451  0.14343698    -0.09300
C1016       C  0.76243672  0.59063138  0.17139162    -0.10900
C1017       C  0.78504241  0.57588568  0.18488738    -0.00700
C1018       C  0.79888816  0.55410183  0.16952795    -0.09800
C1019       C  0.75890653  0.55572456  0.09779204     0.06700
H1020       H  0.73634615  0.59558249  0.13370527     0.08600
H1021       H  0.75128524  0.60750236  0.18254195     0.12000
H1022       H  0.81647923  0.54243115  0.17918440     0.12300
H1023       H  0.80184844  0.53096438  0.12987284     0.08600
C1024       C  0.77919308  0.55433169  0.07568619    -0.10500
C1025       C  0.77045371  0.55051775  0.04708746    -0.09800
C1026       C  0.74130694  0.54716080  0.03995000    -0.00700
C1027       C  0.72110847  0.54804536  0.06214342    -0.10900
C1028       C  0.72976544  0.55232059  0.09065101    -0.09300
H1029       H  0.80173546  0.55749518  0.08038202     0.08600
H1030       H  0.78638861  0.55172213  0.03046033     0.12300
H1031       H  0.69846588  0.54594189  0.05733792     0.12000
H1032       H  0.71361421  0.55322330  0.10715986     0.08600
C1033       C  0.69838299  0.55593664  0.82191089    -0.10500
C1034       C  0.71815871  0.56540462  0.80134033     0.06600
C1035       C  0.74671269  0.57006880  0.80996852    -0.09300
C1036       C  0.75516220  0.56597437  0.83852201    -0.10900
C1037       C  0.73530016  0.55706596  0.85922031    -0.00700
C1038       C  0.70683103  0.55193692  0.85052318    -0.09800
C1039       C  0.70889458  0.57147225  0.77128149     0.06700
H1040       H  0.76255157  0.57698922  0.79458268     0.08600
H1041       H  0.77728272  0.56989516  0.84444532     0.12000
H1042       H  0.69084662  0.54565774  0.86601755     0.12300
H1043       H  0.67615941  0.55250642  0.81605663     0.08600
C1044       C  0.69058826  0.55269004  0.75641063    -0.10500
C1045       C  0.68171285  0.55878027  0.72829003    -0.09800
C1046       C  0.69057099  0.58403693  0.71452022    -0.00700
C1047       C  0.70885741  0.60278365  0.72944377    -0.10900
C1048       C  0.71803717  0.59649655  0.75735579    -0.09300
H1049       H  0.68330139  0.53316211  0.76647624     0.08600
H1050       H  0.66753032  0.54392177  0.71750360     0.12300
H1051       H  0.71608404  0.62242320  0.71955379     0.12000
H1052       H  0.73186450  0.61156221  0.76830564     0.08600
C1053       C  0.72706171  0.46717572  0.86982343    -0.10500
C1054       C  0.69990436  0.45733155  0.87773139     0.06600
C1055       C  0.68427005  0.47259797  0.89835498    -0.09300
C1056       C  0.69530357  0.49813010  0.90989073    -0.10900
C1057       C  0.72217318  0.50829628  0.90111319    -0.00700
C1058       C  0.73816165  0.49213597  0.88159380    -0.09800
C1059       C  0.68850024  0.43118269  0.86397382     0.06700
H1060       H  0.66326594  0.46522865  0.90480625     0.08600
H1061       H  0.68261582  0.51036617  0.92479138     0.12000
H1062       H  0.75904746  0.49949099  0.87475171     0.12300
H1063       H  0.73965566  0.45555465  0.85432682     0.08600
C1064       C  0.68639308  0.42964862  0.83399121    -0.10500
C1065       C  0.67891865  0.40401960  0.82050177    -0.09800
C1066       C  0.67396106  0.37921389  0.83670618    -0.00700
C1067       C  0.67556950  0.38097062  0.86679716    -0.10900
C1068       C  0.68254313  0.40677671  0.88029563    -0.09300
H1069       H  0.69102421  0.44824949  0.82099816     0.08600
H1070       H  0.67775901  0.40345382  0.79734812     0.12300
H1071       H  0.67163221  0.36232400  0.87993518     0.12000
H1072       H  0.68435026  0.40742970  0.90341516     0.08600
C1073       C  0.29930058  0.71765881  0.30142409    -0.10500
C1074       C  0.30500416  0.70801839  0.32952257     0.06600
C1075       C  0.28316088  0.71108254  0.35004529    -0.09300
C1076       C  0.25654858  0.72305407  0.34255134    -0.10900
C1077       C  0.25081180  0.73166855  0.31423639    -0.00700
C1078       C  0.27254694  0.72886834  0.29383132    -0.09800
C1079       C  0.33354402  0.69492977  0.33696072     0.06700
H1080       H  0.28627694  0.70377129  0.37180708     0.08600
H1081       H  0.24018851  0.72493750  0.35878997     0.12000
H1082       H  0.26901788  0.73579469  0.27196505     0.12300
H1083       H  0.31559831  0.71690204  0.28507868     0.08600
C1084       C  0.34963036  0.68086718  0.31582189    -0.10500
C1085       C  0.37722213  0.67079635  0.32166327    -0.09800
C1086       C  0.38952210  0.67371331  0.34899515    -0.00700
C1087       C  0.37273909  0.68549783  0.37086681    -0.10900
C1088       C  0.34536548  0.69656552  0.36481762    -0.09300
H1089       H  0.34111105  0.67771236  0.29448539     0.08600
H1090       H  0.38926679  0.66118934  0.30444201     0.12300
H1091       H  0.38084886  0.68652716  0.39256972     0.12000
H1092       H  0.33386948  0.70692392  0.38193130     0.08600
C1093       C  0.41117678  0.73940849  0.40848918    -0.10500
C1094       C  0.41659026  0.72801399  0.43591580     0.06600
C1095       C  0.43513789  0.70450670  0.43843684    -0.09300
C1096       C  0.44596040  0.69119959  0.41412235    -0.10900
C1097       C  0.43848041  0.70096365  0.38668880    -0.00700
C1098       C  0.42235532  0.72614250  0.38402685    -0.09800
C1099       C  0.40156264  0.73876790  0.46179904     0.06700
H1100       H  0.43967742  0.69507660  0.45914879     0.08600
H1101       H  0.45815748  0.67169334  0.41663568     0.12000
H1102       H  0.41628724  0.73391869  0.36301225     0.12300
H1103       H  0.39731230  0.75775407  0.40590842     0.08600
C1104       C  0.37190527  0.74439387  0.46133516    -0.10500
C1105       C  0.35731251  0.75104187  0.48670499    -0.09800
C1106       C  0.37211094  0.75211208  0.51302106    -0.00700
C1107       C  0.40188784  0.74732221  0.51314678    -0.10900
C1108       C  0.41636830  0.74082131  0.48795209    -0.09300
H1109       H  0.35981687  0.74260885  0.44155195     0.08600
H1110       H  0.33442493  0.75472548  0.48581251     0.12300
H1111       H  0.41415609  0.74837357  0.53287116     0.12000
H1112       H  0.43922736  0.73696947  0.48901182     0.08600
C1113       C  0.53291831  0.63991854  0.42711421    -0.10500
C1114       C  0.55431893  0.65790867  0.43856275     0.06600
C1115       C  0.56221899  0.68247601  0.42335389    -0.09300
C1116       C  0.54994726  0.68838202  0.39682014    -0.10900
C1117       C  0.52975358  0.66973447  0.38458484    -0.00700
C1118       C  0.52072946  0.64576893  0.40017133    -0.09800
C1119       C  0.56929082  0.65102856  0.46578460     0.06700
H1120       H  0.57813368  0.69703998  0.43191409     0.08600
H1121       H  0.55675632  0.70729987  0.38533675     0.12000
H1122       H  0.50516315  0.63117787  0.39110043     0.12300
H1123       H  0.52643468  0.62083580  0.43850521     0.08600
C1124       C  0.55395784  0.64260047  0.49013455    -0.10500
C1125       C  0.56831370  0.63743943  0.51603064    -0.09800
C1126       C  0.59830561  0.64019096  0.51790286    -0.00700
C1127       C  0.61362551  0.64819176  0.49339553    -0.10900
C1128       C  0.59926423  0.65370531  0.46767946    -0.09300
H1129       H  0.53085063  0.64051706  0.48925929     0.08600
H1130       H  0.55598046  0.63095597  0.53450043     0.12300
H1131       H  0.63673477  0.65033794  0.49412699     0.12000
H1132       H  0.61164960  0.65986815  0.44912803     0.08600
C1133       C  0.61714193  0.68917527  0.31590124    -0.10500
C1134       C  0.62829208  0.66315866  0.32619783     0.06600
C1135       C  0.60943135  0.64410376  0.33991036    -0.09300
C1136       C  0.58025928  0.65074061  0.34287624    -0.10900
C1137       C  0.56917164  0.67665871  0.33233761    -0.00700
C1138       C  0.58800877  0.69575202  0.31881796    -0.09800
C1139       C  0.65920449  0.65571123  0.32182017     0.06700
H1140       H  0.61705022  0.62367431  0.34768089     0.08600
H1141       H  0.56623357  0.63523770  0.35279694     0.12000
H1142       H  0.58021795  0.71594102  0.31058240     0.12300
H1143       H  0.63099758  0.70460720  0.30564179     0.08600
C1144       C  0.67306048  0.66312658  0.29618439    -0.10500
C1145       C  0.70179392  0.65594198  0.29163376    -0.09800
C1146       C  0.71768860  0.64109555  0.31256843    -0.00700
C1147       C  0.70397354  0.63381676  0.33835815    -0.10900
C1148       C  0.67510263  0.64097009  0.34289223    -0.09300
H1149       H  0.66150073  0.67403245  0.27924835     0.08600
H1150       H  0.71146933  0.66181374  0.27145246     0.12300
H1151       H  0.71546189  0.62234405  0.35496929     0.12000
H1152       H  0.66529363  0.63514825  0.36301954     0.08600
C1153       C  0.05884584  0.72815797  0.40403501    -0.10500
C1154       C  0.06935022  0.73813191  0.43044117     0.06600
C1155       C  0.09504969  0.75383890  0.43090652    -0.09300
C1156       C  0.11011363  0.75908585  0.40554456    -0.10900
C1157       C  0.09962080  0.74901440  0.37910236    -0.00700
C1158       C  0.07368899  0.73366224  0.37868607    -0.09800
C1159       C  0.05443175  0.73064909  0.45751016     0.06700
H1160       H  0.10384521  0.76148335  0.45099370     0.08600
H1161       H  0.12990762  0.77113449  0.40663807     0.12000
H1162       H  0.06489466  0.72568910  0.35873216     0.12300
H1163       H  0.03904370  0.71611071  0.40299618     0.08600
C1164       C  0.04530541  0.70245451  0.46222564    -0.10500
C1165       C  0.03371180  0.69445101  0.48851819    -0.09800
C1166       C  0.03072673  0.71443079  0.51062759    -0.00700
C1167       C  0.03812908  0.74300150  0.50550416    -0.10900
C1168       C  0.05023489  0.75100860  0.47923051    -0.09300
H1169       H  0.04840429  0.68625419  0.44604371     0.08600
H1170       H  0.02829759  0.67226341  0.49223821     0.12300
H1171       H  0.03555871  0.75879720  0.52214570     0.12000
H1172       H  0.05668483  0.77299005  0.47599792     0.08600
C1173       C  0.17825934  0.74125749  0.55557386    -0.10500
C1174       C  0.16479957  0.71948500  0.57137275     0.06600
C1175       C  0.18063481  0.70577441  0.59313557    -0.09300
C1176       C  0.20892386  0.71407759  0.59935279    -0.10900
C1177       C  0.22231072  0.73598306  0.58365889    -0.00700
C1178       C  0.20668445  0.74924040  0.56147521    -0.09800
C1179       C  0.13415538  0.71171861  0.56571738     0.06700
H1180       H  0.17087691  0.68911552  0.60589086     0.08600
H1181       H  0.22029622  0.70340425  0.61657854     0.12000
H1182       H  0.21622151  0.76627633  0.54904981     0.12300
H1183       H  0.16678247  0.75210856  0.53853488     0.08600
C1184       C  0.11343263  0.73309224  0.56135681    -0.10500
C1185       C  0.08449079  0.72602298  0.55721411    -0.09800
C1186       C  0.07549381  0.69739192  0.55668984    -0.00700
C1187       C  0.09620573  0.67596985  0.56091899    -0.10900
C1188       C  0.12515319  0.68302748  0.56540622    -0.09300
H1189       H  0.11946037  0.75541153  0.56217176     0.08600
H1190       H  0.06901617  0.74306793  0.55574144     0.12300
H1191       H  0.08995542  0.65369627  0.56097627     0.12000
H1192       H  0.14053175  0.66602040  0.56857629     0.08600
C1193       C  0.85727148  0.66613359  0.55666822    -0.10500
C1194       C  0.83672790  0.68536661  0.56710233     0.06600
C1195       C  0.84547512  0.71353923  0.57303021    -0.09300
C1196       C  0.87406893  0.72204073  0.56918673    -0.10900
C1197       C  0.89472394  0.70261373  0.55933505    -0.00700
C1198       C  0.88586461  0.67457411  0.55304060    -0.09800
C1199       C  0.80670792  0.67568163  0.57295065     0.06700
H1200       H  0.83018209  0.72903587  0.58074493     0.08600
H1201       H  0.88005601  0.74382623  0.57412539     0.12000
H1202       H  0.90122962  0.65874540  0.54625614     0.12300
H1203       H  0.85148128  0.64417011  0.55231760     0.08600
C1204       C  0.79230044  0.65699284  0.55415982    -0.10500
C1205       C  0.76457463  0.64710620  0.56031288    -0.09800
C1206       C  0.75057134  0.65540824  0.58557902    -0.00700
C1207       C  0.76492750  0.67424674  0.60424813    -0.10900
C1208       C  0.79251473  0.68432482  0.59796414    -0.09300
H1209       H  0.80244533  0.65008046  0.53458330     0.08600
H1210       H  0.75424495  0.63265515  0.54540375     0.12300
H1211       H  0.75489050  0.68114684  0.62388373     0.12000
H1212       H  0.80304107  0.69838265  0.61311219     0.08600
C1213       C  0.93401928  0.64903876  0.47768165    -0.10500
C1214       C  0.91357027  0.66449256  0.46168155     0.06600
C1215       C  0.90664392  0.69230116  0.47004870    -0.09300
C1216       C  0.91877611  0.70401711  0.49462434    -0.10900
C1217       C  0.93767257  0.68804147  0.51180884    -0.00700
C1218       C  0.94593858  0.66073241  0.50279038    -0.09800
C1219       C  0.89877057  0.65203950  0.43650962     0.06700
H1220       H  0.89142503  0.70482158  0.45774859     0.08600
H1221       H  0.91242197  0.72526953  0.50107624     0.12000
H1222       H  0.96041993  0.64809876  0.51580035     0.12300
H1223       H  0.93980923  0.62757889  0.47139974     0.08600
C1224       C  0.91444635  0.64187826  0.41318320    -0.10500
C1225       C  0.90030609  0.63352085  0.38804325    -0.09800
C1226       C  0.87018651  0.63464140  0.38598356    -0.00700
C1227       C  0.85448514  0.64360680  0.40985041    -0.10900
C1228       C  0.86866788  0.65251081  0.43476741    -0.09300
H1229       H  0.93764841  0.64147912  0.41401897     0.08600
H1230       H  0.91297425  0.62640231  0.37008340     0.12300
H1231       H  0.83131040  0.64462576  0.40892623     0.12000
H1232       H  0.85616133  0.66022694  0.45260128     0.08600
C1233       C  0.50296152  0.01971407  0.70710834    -0.10500
C1234       C  0.48954469  0.01190719  0.73272253     0.06600
C1235       C  0.50263487  0.99132162  0.75049079    -0.09300
C1236       C  0.52963866  0.98014979  0.74351862    -0.10900
C1237       C  0.54360858  0.98936822  0.71864323    -0.00700
C1238       C  0.52955338  0.00843304  0.70009305    -0.09800
C1239       C  0.46284423  0.02666591  0.74120604     0.06700
H1240       H  0.49260487  0.98491994  0.77034557     0.08600
H1241       H  0.54012694  0.96542146  0.75803395     0.12000
H1242       H  0.53980800  0.01540058  0.68054231     0.12300
H1243       H  0.49309764  0.03506088  0.69276535     0.08600
C1244       C  0.46123521  0.05657113  0.73933089    -0.10500
C1245       C  0.43602136  0.07086337  0.74633763    -0.09800
C1246       C  0.41167314  0.05554614  0.75497714    -0.00700
C1247       C  0.41328025  0.02561086  0.75701910    -0.10900
C1248       C  0.43875133  0.01131014  0.75044214    -0.09300
H1249       H  0.47962468  0.06893382  0.73254370     0.08600
H1250       H  0.43548211  0.09391886  0.74463375     0.12300
H1251       H  0.39491538  0.01328161  0.76390228     0.12000
H1252       H  0.43946477  0.98825299  0.75198633     0.08600
C1253       C  0.58602518  0.07194104  0.74363386    -0.10500
C1254       C  0.60124571  0.09070531  0.72565650     0.06600
C1255       C  0.61187711  0.07992603  0.69971879    -0.09300
C1256       C  0.60824955  0.05113286  0.69238264    -0.10900
C1257       C  0.59391855  0.03208962  0.71073112    -0.00700
C1258       C  0.58257179  0.04298663  0.73636445    -0.09800
C1259       C  0.60721448  0.12101063  0.73425366     0.06700
H1260       H  0.62323342  0.09378754  0.68507972     0.08600
H1261       H  0.61703319  0.04368623  0.67234634     0.12000
H1262       H  0.57197315  0.02895619  0.75137955     0.12300
H1263       H  0.57775711  0.07938390  0.76389676     0.08600
C1264       C  0.58618452  0.13800537  0.74735860    -0.10500
C1265       C  0.59214033  0.16641184  0.75520833    -0.09800
C1266       C  0.61936224  0.17855125  0.75034964    -0.00700
C1267       C  0.64036419  0.16142886  0.73741557    -0.10900
C1268       C  0.63437286  0.13318143  0.72946848    -0.09300
H1269       H  0.56499330  0.12943892  0.75123159     0.08600
H1270       H  0.57540397  0.17884126  0.76516322     0.12300
H1271       H  0.66163068  0.16979606  0.73352997     0.12000
H1272       H  0.65127228  0.12065617  0.71991145     0.08600
C1273       C  0.56591160  0.80677571  0.68793396    -0.10500
C1274       C  0.59378141  0.79501045  0.68872078     0.06600
C1275       C  0.61552645  0.81120343  0.70214960    -0.09300
C1276       C  0.61019679  0.83870541  0.71246647    -0.10900
C1277       C  0.58281971  0.85096748  0.71038356    -0.00700
C1278       C  0.56042556  0.83411337  0.69919512    -0.09800
C1279       C  0.60061766  0.76634917  0.67562832     0.06700
H1280       H  0.63694873  0.80278905  0.70472289     0.08600
H1281       H  0.62783182  0.85068992  0.72169621     0.12000
H1282       H  0.53871912  0.84218778  0.69874804     0.12300
H1283       H  0.54833401  0.79522520  0.67815060     0.08600
C1284       C  0.57997293  0.74434559  0.67335262    -0.10500
C1285       C  0.58719630  0.71743151  0.66205825    -0.09800
C1286       C  0.61537303  0.71156716  0.65330232    -0.00700
C1287       C  0.63573571  0.73362015  0.65490141    -0.10900
C1288       C  0.62842194  0.76057991  0.66544537    -0.09300
H1289       H  0.55837453  0.74752908  0.68094523     0.08600
H1290       H  0.57095344  0.70092207  0.66103192     0.12300
H1291       H  0.65748191  0.73008621  0.64776196     0.12000
H1292       H  0.64480872  0.77692225  0.66544966     0.08600
C1293       C  0.52451081  0.87258787  0.64500073    -0.10500
C1294       C  0.49685478  0.87936350  0.65478142     0.06600
C1295       C  0.49410880  0.89960839  0.67676868    -0.09300
C1296       C  0.51832703  0.91016145  0.69086931    -0.10900
C1297       C  0.54576431  0.90069438  0.68336711    -0.00700
C1298       C  0.54884637  0.88353563  0.65897929    -0.09800
C1299       C  0.47115805  0.86311084  0.64495166     0.06700
H1300       H  0.47322752  0.90539132  0.68484921     0.08600
H1301       H  0.51547961  0.92350515  0.70954493     0.12000
H1302       H  0.56989223  0.87630784  0.65265864     0.12300
H1303       H  0.52731826  0.85752791  0.62768942     0.08600
C1304       C  0.47233806  0.83324872  0.64180288    -0.10500
C1305       C  0.44735994  0.81739730  0.63647674    -0.09800
C1306       C  0.42061264  0.83103078  0.63443134    -0.00700
C1307       C  0.41961179  0.86096179  0.63669532    -0.10900
C1308       C  0.44454776  0.87678501  0.64178858    -0.09300
H1309       H  0.49240639  0.82198163  0.64461830     0.08600
H1310       H  0.44889273  0.79441138  0.63470957     0.12300
H1311       H  0.39945520  0.87223601  0.63467321     0.12000
H1312       H  0.44292783  0.89975021  0.64374985     0.08600
loop_ 
_geom_bond_atom_site_label_1 
_geom_bond_atom_site_label_2 
_geom_bond_distance 
_geom_bond_site_symmetry_2 
_ccdc_geom_bond_type 
N1            C5   1.364       .  A
N1            C2   1.366       .  A
N1         C1297   1.439       .  S
C2            C3   1.382       .  A
C2         C1277   1.502       .  S
C3            C4   1.377       .  A
C3            H6   1.082       .  S
C4            C5   1.384       .  A
C4            H7   1.083       .  S
C5           C12   1.487       .  S
N8           C12   1.363       .  A
N8            C9   1.364   1_565  A
N8         C1237   1.439       .  S
C9           C10   1.382   1_545  A
C9         C1257   1.504       .  S
C10          C11   1.376       .  A
C10          H13   1.082       .  S
C11          C12   1.383       .  A
C11          H14   1.083       .  S
N15          C19   1.361       .  A
N15          C16   1.361       .  A
N15        C1217   1.440       .  S
C16          C17   1.381       .  A
C16        C1197   1.500       .  S
C17          C18   1.378       .  A
C17          H20   1.082       .  S
C18          C19   1.386       .  A
C18          H21   1.083       .  S
C19          C26   1.485       .  S
N22          C26   1.363   1_455  A
N22          C23   1.363       .  A
N22        C1166   1.439       .  S
C23          C24   1.380       .  A
C23        C1186   1.496       .  S
C24          C25   1.375       .  A
C24          H27   1.082       .  S
C25          C26   1.385   1_455  A
C25          H28   1.083   1_455  S
N29          C33   1.360       .  A
N29          C30   1.361       .  A
N29        C1117   1.439       .  S
C30          C31   1.381       .  A
C30        C1137   1.497       .  S
C31          C32   1.378       .  A
C31          H34   1.082       .  S
C32          C33   1.385       .  A
C32          H35   1.083       .  S
C33          C40   1.483       .  S
N36          C40   1.363       .  A
N36          C37   1.363       .  A
N36        C1097   1.440       .  S
C37          C38   1.381       .  A
C37        C1086   1.495       .  S
C38          C39   1.374       .  A
C38          H41   1.082       .  S
C39          C40   1.384       .  A
C39          H42   1.083       .  S
N43          C47   1.363       .  A
N43          C44   1.362       .  A
N43        C1057   1.442       .  S
C44          C45   1.380       .  A
C44        C1037   1.496       .  S
C45          C46   1.376       .  A
C45          H48   1.082       .  S
C46          C47   1.386       .  A
C46          H49   1.083       .  S
C47          C54   1.486       .  S
N50          C54   1.365       .  A
N50          C51   1.363   1_556  A
N50        C1006   1.440       .  S
C51          C52   1.380   1_554  A
C51        C1026   1.497       .  S
C52          C53   1.375       .  A
C52          H55   1.082   1_556  S
C53          C54   1.385       .  A
C53          H56   1.083       .  S
O57          C73   1.274       .  A
O57         Zn63   2.020       .  S
C58        C1066   1.487       .  S
C58          O74   1.278       .  A
C58          O71   1.275       .  A
O59          C72   1.280       .  A
O59         Cd66   2.102       .  S
O60          C78   1.279       .  A
O60         Cd69   2.090       .  S
O61          C75   1.276       .  A
O61         Cd65   2.075       .  S
O62          C73   1.278       .  A
O62         Cd65   2.082       .  S
Zn63         O74   2.043       .  S
Zn63         O76   2.046       .  S
Zn63         O68   1.959       .  S
O64          C75   1.277       .  A
O64         Cd69   2.088       .  S
Cd65         O67   2.099       .  S
Cd65         O68   2.008       .  S
Cd66         O70   2.100       .  S
Cd66         O79   2.095       .  S
Cd66         O68   2.008       .  S
O67          C77   1.279       .  A
O68         Cd69   2.010       .  S
Cd69         O71   2.072       .  S
O70          C77   1.280       .  A
C72         C957   1.494       .  S
C72          O76   1.278       .  A
C73         C946   1.485       .  S
C75         C917   1.488       .  S
C77        C1266   1.499       .  S
C78         C977   1.491       .  S
C78          O79   1.279       .  A
O80          C96   1.275       .  A
O80         Zn86   2.029       .  S
C81        C1106   1.490       .  S
C81          O97   1.280       .  A
C81          O94   1.274       .  A
O82          C95   1.278       .  A
O82         Cd89   2.092       .  S
O83         C101   1.278       .  A
O83         Cd92   2.095       .  S
O84          C98   1.275       .  A
O84         Cd88   2.068       .  S
O85          C96   1.275       .  A
O85         Cd88   2.079       .  S
Zn86         O97   2.062       .  S
Zn86         O99   2.048       .  S
Zn86         O91   1.967       .  S
O87          C98   1.277       .  A
O87         Cd92   2.091       .  S
Cd88         O90   2.100       .  S
Cd88         O91   2.011       .  S
Cd89         O93   2.087       .  S
Cd89        O102   2.088       .  S
Cd89         O91   2.006       .  S
O90         C100   1.280       .  A
O91         Cd92   2.009       .  S
Cd92         O94   2.057       .  S
O93         C100   1.278       .  A
C95        C1177   1.493       .  S
C95          O99   1.279       .  A
C96         C866   1.474       .  S
C98        C1306   1.487       .  S
C100        C897   1.495       .  S
C101        C877   1.490       .  S
C101        O102   1.278       .  A
N103        C107   1.364       .  A
N103        C104   1.363       .  A
N103        C837   1.442       .  S
C104        C105   1.381       .  A
C104        C826   1.492       .  S
C105        C106   1.377       .  A
C105        H108   1.082       .  S
C106        C107   1.384       .  A
C106        H109   1.083       .  S
C107        C114   1.487       .  S
N110        C114   1.364       .  A
N110        C111   1.364       .  A
N110        C797   1.438       .  S
C111        C112   1.383       .  A
C111        C777   1.501       .  S
C112        C113   1.376       .  A
C112        H115   1.082       .  S
C113        C114   1.383       .  A
C113        H116   1.083       .  S
O117        C133   1.276       .  A
O117       Zn123   2.029       .  S
C118        C737   1.487       .  S
C118        O134   1.280       .  A
C118        O131   1.275       .  A
O119        C132   1.278       .  A
O119       Cd126   2.091       .  S
O120        C138   1.279       .  A
O120       Cd129   2.098       .  S
O121        C135   1.273       .  A
O121       Cd125   2.060       .  S
O122        C133   1.275       .  A
O122       Cd125   2.074       .  S
Zn123       O134   2.056       .  S
Zn123       O136   2.057       .  S
Zn123       O128   1.964       .  S
O124        C135   1.278       .  A
O124       Cd129   2.094       .  S
Cd125       O127   2.095       .  S
Cd125       O128   2.009       .  S
Cd126       O130   2.098       .  S
Cd126       O139   2.088       .  S
Cd126       O128   2.005       .  S
O127        C137   1.279       .  A
O128       Cd129   2.015       .  S
Cd129       O131   2.073       .  S
O130        C137   1.280       .  A
C132       C1017   1.495       .  S
C132        O136   1.279       .  A
C133        C846   1.473       .  S
C135       C1226   1.482       .  S
C137        C757   1.495       .  S
C138       C1146   1.495       .  S
C138        O139   1.279       .  A
N140        C144   1.362       .  A
N140        C141   1.362       .  A
N140        C717   1.437       .  S
C141        C142   1.380       .  A
C141        C986   1.496       .  S
C142        C143   1.374       .  A
C142        H145   1.082       .  S
C143        C144   1.385       .  A
C143        H146   1.083       .  S
C144        C151   1.483       .  S
N147        C151   1.362   1_455  A
N147        C148   1.361       .  A
N147        C686   1.445       .  S
C148        C149   1.379       .  A
C148        C697   1.493       .  S
C149        C150   1.376       .  A
C149        H152   1.082       .  S
C150        C151   1.387   1_455  A
C150        H153   1.083   1_455  S
O154        C170   1.277       .  A
O154       Zn160   2.038       .  S
C155        C726   1.483       .  S
C155        O171   1.277       .  A
C155        O168   1.273       .  A
O156        C169   1.277       .  A
O156       Cd163   2.074       .  S
O157        C175   1.278       .  A
O157       Cd166   2.089       .  S
O158        C172   1.276       .  A
O158       Cd162   2.078       .  S
O159        C170   1.277       .  A
O159       Cd162   2.082       .  S
Zn160       O171   2.037       .  S
Zn160       O173   2.061       .  S
Zn160       O165   1.967       .  S
O161        C172   1.277       .  A
O161       Cd166   2.084       .  S
Cd162       O164   2.101       .  S
Cd162       O165   2.009       .  S
Cd163       O167   2.079       .  S
Cd163       O176   2.090       .  S
Cd163       O165   1.997       .  S
O164        C174   1.280       .  A
O165       Cd166   2.007       .  S
Cd166       O168   2.058       .  S
O167        C174   1.277       .  A
C169        C626   1.487       .  S
C169        O173   1.279       .  A
C170        C997   1.490       .  S
C172        C806   1.489       .  S
C174        C666   1.493       .  S
C175        C646   1.493       .  S
C175        O176   1.278       .  A
N177        C181   1.360       .  A
N177        C178   1.363       .  A
N177        C597   1.437       .  S
C178        C179   1.383       .  A
C178        C586   1.504       .  S
C179        C180   1.376       .  A
C179        H182   1.082       .  S
C180        C181   1.383       .  A
C180        H183   1.083       .  S
C181        C188   1.483       .  S
N184        C188   1.361       .  A
N184        C185   1.363       .  A
N184        C926   1.439       .  S
C185        C186   1.383       .  A
C185        C617   1.496       .  S
C186        C187   1.376       .  A
C186        H189   1.082       .  S
C187        C188   1.383       .  A
C187        H190   1.083       .  S
N191        C195   1.364       .  A
N191        C192   1.365       .  A
N191        C557   1.445       .  S
C192        C193   1.382       .  A
C192        C906   1.501       .  S
C193        C194   1.374       .  A
C193        H196   1.082       .  S
C194        C195   1.385       .  A
C194        H197   1.083       .  S
C195        C202   1.485       .  S
N198        C202   1.364       .  A
N198        C199   1.363   1_556  A
N198        C537   1.439       .  S
C199        C200   1.379   1_554  A
C199        C526   1.496       .  S
C200        C201   1.374       .  A
C200        H203   1.082   1_556  S
C201        C202   1.386       .  A
C201        H204   1.083       .  S
O205        C221   1.276       .  A
O205       Zn211   2.028       .  S
C206        C566   1.488       .  S
C206        O222   1.277       .  A
C206        O219   1.275       .  A
O207        C220   1.277       .  A
O207       Cd214   2.077       .  S
O208        C226   1.279       .  A
O208       Cd217   2.085       .  S
O209        C223   1.275       .  A
O209       Cd213   2.070       .  S
O210        C221   1.276       .  A
O210       Cd213   2.067       .  S
Zn211       O222   2.037       .  S
Zn211       O224   2.053       .  S
Zn211       O216   1.959       .  S
O212        C223   1.277       .  A
O212       Cd217   2.081       .  S
Cd213       O215   2.096       .  S
Cd213       O216   2.005       .  S
Cd214       O218   2.082       .  S
Cd214       O227   2.088       .  S
Cd214       O216   1.999       .  S
O215        C225   1.278       .  A
O216       Cd217   2.008       .  S
Cd217       O219   2.082       .  S
O218        C225   1.277       .  A
C220        C506   1.484       .  S
C220        O224   1.278       .  A
C221       C1246   1.480       .  S
C223        C606   1.481       .  S
C225        C477   1.492       .  S
C226        C706   1.489       .  S
C226        O227   1.279       .  A
N228        C232   1.362       .  A
N228        C229   1.362       .  A
N228        C437   1.440       .  S
C229        C230   1.381       .  A
C229        C466   1.491       .  S
C230        C231   1.376       .  A
C230        H233   1.082       .  S
C231        C232   1.384       .  A
C231        H234   1.083       .  S
C232        C239   1.484       .  S
N235        C239   1.361       .  A
N235        C236   1.362       .  A
N235        C857   1.439       .  S
C236        C237   1.382       .  A
C236        C497   1.494       .  S
C237        C238   1.376       .  A
C237        H240   1.082       .  S
C238        C239   1.384       .  A
C238        H241   1.083       .  S
O242        C258   1.277       .  A
O242       Zn248   2.030       .  S
C243        C677   1.488       .  S
C243        O259   1.279       .  A
C243        O256   1.276       .  A
O244        C257   1.277       .  A
O244       Cd251   2.084       .  S
O245        C263   1.279       .  A
O245       Cd254   2.103       .  S
O246        C260   1.275       .  A
O246       Cd250   2.075       .  S
O247        C258   1.277       .  A
O247       Cd250   2.084       .  S
Zn248       O259   2.046       .  S
Zn248       O261   2.063       .  S
Zn248       O253   1.960       .  S
O249        C260   1.279       .  A
O249       Cd254   2.092       .  S
Cd250       O252   2.096       .  S
Cd250       O253   2.012       .  S
Cd251       O255   2.088       .  S
Cd251       O264   2.088       .  S
Cd251       O253   1.998       .  S
O252        C262   1.279       .  A
O253       Cd254   2.013       .  S
Cd254       O256   2.078       .  S
O255        C262   1.279       .  A
C257        C577   1.498       .  S
C257        O261   1.279       .  A
C258        C546   1.487       .  S
C260        C426   1.489       .  S
C262        C457   1.494       .  S
C263        C786   1.490       .  S
C263        O264   1.279       .  A
N265        C269   1.363       .  A
N265        C266   1.363       .  A
N265        C397   1.437       .  S
C266        C267   1.381       .  A
C266        C766   1.498       .  S
C267        C268   1.374       .  A
C267        H270   1.082       .  S
C268        C269   1.385       .  A
C268        H271   1.083       .  S
C269        C276   1.485       .  S
N272        C276   1.362       .  A
N272        C273   1.363   1_565  A
N272        C417   1.442       .  S
C273        C274   1.381   1_545  A
C273        C637   1.500       .  S
C274        C275   1.376       .  A
C274        H277   1.082   1_565  S
C275        C276   1.386       .  A
C275        H278   1.083       .  S
O279        C295   1.273       .  A
O279       Zn285   2.012       .  S
C280        C446   1.475       .  S
C280        O296   1.276       .  A
C280        O293   1.274       .  A
O281        C294   1.279       .  A
O281       Cd288   2.096       .  S
O282        C300   1.277       .  A
O282       Cd291   2.087       .  S
O283        C297   1.276       .  A
O283       Cd287   2.078       .  S
O284        C295   1.277       .  A
O284       Cd287   2.091       .  S
Zn285       O296   2.035       .  S
Zn285       O298   2.044       .  S
Zn285       O290   1.958       .  S
O286        C297   1.277       .  A
O286       Cd291   2.085       .  S
Cd287       O289   2.097       .  S
Cd287       O290   2.014       .  S
Cd288       O292   2.100       .  S
Cd288       O301   2.091       .  S
Cd288       O290   2.007       .  S
O289        C299   1.280       .  A
O290       Cd291   2.015       .  S
Cd291       O293   2.071       .  S
O292        C299   1.281       .  A
C294        C517   1.491       .  S
C294        O298   1.278       .  A
C295        C406   1.485       .  S
C297       C1157   1.488       .  S
C299        C817   1.498       .  S
C300       C1077   1.488       .  S
C300        O301   1.279       .  A
N302        C306   1.360       .  A
N302        C303   1.361       .  A
N302        C937   1.441       .  S
C303        C304   1.380       .  A
C303        C486   1.496       .  S
C304        C305   1.377       .  A
C304        H307   1.082       .  S
C305        C306   1.386       .  A
C305        H308   1.083       .  S
C306        C313   1.482       .  S
N309        C313   1.361       .  A
N309        C310   1.362       .  A
N309        C377   1.437       .  S
C310        C311   1.380       .  A
C310        C886   1.494       .  S
C311        C312   1.374       .  A
C311        H314   1.082       .  S
C312        C313   1.385       .  A
C312        H315   1.083       .  S
N316        C320   1.362       .  A
N316        C317   1.362       .  A
N316        C746   1.442       .  S
C317        C318   1.381       .  A
C317        C657   1.499       .  S
C318        C319   1.376       .  A
C318        H321   1.082       .  S
C319        C320   1.385       .  A
C319        H322   1.083       .  S
C320        C327   1.484       .  S
N323        C327   1.363       .  A
N323        C324   1.364       .  A
N323        C357   1.438       .  S
C324        C325   1.381       .  A
C324        C966   1.498       .  S
C325        C326   1.375       .  A
C325        H328   1.082       .  S
C326        C327   1.384       .  A
C326        H329   1.083       .  S
O330        C346   1.276       .  A
O330       Zn336   2.024       .  S
C331        C386   1.488       .  S
C331        O347   1.278       .  A
C331        O344   1.273       .  A
O332        C345   1.279       .  A
O332       Cd339   2.086       .  S
O333        C351   1.279       .  A
O333       Cd342   2.087       .  S
O334        C348   1.275       .  A
O334       Cd338   2.074       .  S
O335        C346   1.276       .  A
O335       Cd338   2.068       .  S
Zn336       O347   2.050       .  S
Zn336       O349   2.068       .  S
Zn336       O341   1.967       .  S
O337        C348   1.278       .  A
O337       Cd342   2.087       .  S
Cd338       O340   2.094       .  S
Cd338       O341   2.007       .  S
Cd339       O343   2.094       .  S
Cd339       O352   2.090       .  S
Cd339       O341   1.999       .  S
O340        C350   1.278       .  A
O341       Cd342   2.007       .  S
Cd342       O344   2.063       .  S
O343        C350   1.278       .  A
C345       C1286   1.494       .  S
C345        O349   1.281       .  A
C346       C1126   1.479       .  S
C348        C366   1.488       .  S
C350       C1206   1.496       .  S
C351       C1046   1.490       .  S
C351        O352   1.279       .  A
C353        C354   1.404       .  A
C353        C358   1.396       .  A
C353        H363   1.083       .  S
C354        C355   1.408       .  A
C354        C359   1.487       .  S
C355        C356   1.403       .  A
C355        H360   1.083       .  S
C356        C357   1.402       .  A
C356        H361   1.081       .  S
C357        C358   1.403       .  A
C358        H362   1.083       .  S
C359        C364   1.405       .  A
C359        C368   1.405       .  A
C364        C365   1.400       .  A
C364        H369   1.083       .  S
C365        C366   1.408       .  A
C365        H370   1.083       .  S
C366        C367   1.407       .  A
C367        C368   1.401       .  A
C367        H371   1.083       .  S
C368        H372   1.083       .  S
C373        C374   1.404       .  A
C373        C378   1.395       .  A
C373        H383   1.083       .  S
C374        C375   1.408       .  A
C374        C379   1.486       .  S
C375        C376   1.403       .  A
C375        H380   1.083       .  S
C376        C377   1.402       .  A
C376        H381   1.082       .  S
C377        C378   1.403       .  A
C378        H382   1.083       .  S
C379        C384   1.406       .  A
C379        C388   1.404       .  A
C384        C385   1.402       .  A
C384        H389   1.083       .  S
C385        C386   1.407       .  A
C385        H390   1.083       .  S
C386        C387   1.409       .  A
C387        C388   1.399       .  A
C387        H391   1.083       .  S
C388        H392   1.083       .  S
C393        C394   1.404       .  A
C393        C398   1.395       .  A
C393        H403   1.083       .  S
C394        C395   1.409       .  A
C394        C399   1.487   1_655  S
C395        C396   1.403       .  A
C395        H400   1.083       .  S
C396        C397   1.401       .  A
C396        H401   1.082       .  S
C397        C398   1.403       .  A
C398        H402   1.083       .  S
C399        C404   1.405       .  A
C399        C408   1.406       .  A
C404        C405   1.399       .  A
C404        H409   1.083       .  S
C405        C406   1.407       .  A
C405        H410   1.083       .  S
C406        C407   1.406       .  A
C407        C408   1.401       .  A
C407        H411   1.083       .  S
C408        H412   1.083   1_455  S
C413        C414   1.408   1_565  A
C413        C418   1.408       .  A
C413        H423   1.083       .  S
C414        C415   1.399       .  A
C414        C419   1.478   1_655  S
C415        C416   1.391       .  A
C415        H420   1.083       .  S
C416        C417   1.405   1_545  A
C416        H421   1.083       .  S
C417        C418   1.405       .  A
C418        H422   1.082       .  S
C419        C424   1.401       .  A
C419        C428   1.403   1_455  A
C424        C425   1.403       .  A
C424        H429   1.083   1_545  S
C425        C426   1.411       .  A
C425        H430   1.083       .  S
C426        C427   1.406       .  A
C427        C428   1.399   1_455  A
C427        H431   1.083       .  S
C428        H432   1.083       .  S
C433        C434   1.410       .  A
C433        C438   1.396       .  A
C433        H443   1.081       .  S
C434        C435   1.413       .  A
C434        C439   1.503       .  S
C435        C436   1.401   1_565  A
C435        H440   1.081       .  S
C436        C437   1.401       .  A
C436        H441   1.083       .  S
C437        C438   1.401   1_545  A
C438        H442   1.082       .  S
C439        C444   1.413       .  A
C439        C448   1.411       .  A
C444        C445   1.399       .  A
C444        H449   1.081       .  S
C445        C446   1.400       .  A
C445        H450   1.084       .  S
C446        C447   1.402       .  A
C447        C448   1.400       .  A
C447        H451   1.083       .  S
C448        H452   1.081       .  S
C453        C454   1.408       .  A
C453        C458   1.405       .  A
C453        H463   1.083       .  S
C454        C455   1.408       .  A
C454        C459   1.498       .  S
C455        C456   1.401       .  A
C455        H460   1.083       .  S
C456        C457   1.407       .  A
C456        H461   1.083       .  S
C457        C458   1.409       .  A
C458        H462   1.083       .  S
C459        C464   1.407       .  A
C459        C468   1.411       .  A
C464        C465   1.398       .  A
C464        H469   1.083       .  S
C465        C466   1.404       .  A
C465        H470   1.083       .  S
C466        C467   1.405       .  A
C467        C468   1.407       .  A
C467        H471   1.083       .  S
C468        H472   1.082       .  S
C473        C474   1.409       .  A
C473        C478   1.405       .  A
C473        H483   1.083       .  S
C474        C475   1.407       .  A
C474        C479   1.497       .  S
C475        C476   1.401       .  A
C475        H480   1.083       .  S
C476        C477   1.407       .  A
C476        H481   1.083       .  S
C477        C478   1.408       .  A
C478        H482   1.083       .  S
C479        C484   1.407       .  A
C479        C488   1.409       .  A
C484        C485   1.402       .  A
C484        H489   1.083       .  S
C485        C486   1.407       .  A
C485        H490   1.082       .  S
C486        C487   1.405       .  A
C487        C488   1.403       .  A
C487        H491   1.083       .  S
C488        H492   1.083       .  S
C493        C494   1.410       .  A
C493        C498   1.398       .  A
C493        H503   1.081       .  S
C494        C495   1.413       .  A
C494        C499   1.507       .  S
C495        C496   1.407       .  A
C495        H500   1.081       .  S
C496        C497   1.405       .  A
C496        H501   1.082   1_545  S
C497        C498   1.403       .  A
C498        H502   1.083       .  S
C499        C504   1.411       .  A
C499        C508   1.413       .  A
C504        C505   1.398       .  A
C504        H509   1.081       .  S
C505        C506   1.402       .  A
C505        H510   1.083       .  S
C506        C507   1.404       .  A
C507        C508   1.407       .  A
C507        H511   1.083       .  S
C508        H512   1.081       .  S
C513        C514   1.407       .  A
C513        C518   1.404       .  A
C513        H523   1.083       .  S
C514        C515   1.407       .  A
C514        C519   1.495       .  S
C515        C516   1.404       .  A
C515        H520   1.083       .  S
C516        C517   1.407       .  A
C516        H521   1.083       .  S
C517        C518   1.408       .  A
C518        H522   1.083       .  S
C519        C524   1.406       .  A
C519        C528   1.407       .  A
C524        C525   1.403       .  A
C524        H529   1.083       .  S
C525        C526   1.406       .  A
C525        H530   1.079       .  S
C526        C527   1.407       .  A
C527        C528   1.404       .  A
C527        H531   1.083       .  S
C528        H532   1.083       .  S
C533        C534   1.404       .  A
C533        C538   1.396   1_554  A
C533        H543   1.083       .  S
C534        C535   1.408       .  A
C534        C539   1.487       .  S
C535        C536   1.403   1_554  A
C535        H540   1.083       .  S
C536        C537   1.402       .  A
C536        H541   1.081       .  S
C537        C538   1.404       .  A
C538        H542   1.083       .  S
C539        C544   1.406       .  A
C539        C548   1.405       .  A
C544        C545   1.402       .  A
C544        H549   1.083       .  S
C545        C546   1.407   1_565  A
C545        H550   1.083       .  S
C546        C547   1.407       .  A
C547        C548   1.399   1_545  A
C547        H551   1.083       .  S
C548        H552   1.083   1_554  S
C553        C554   1.410       .  A
C553        C558   1.409       .  A
C553        H563   1.083       .  S
C554        C555   1.402       .  A
C554        C559   1.489       .  S
C555        C556   1.392       .  A
C555        H560   1.083       .  S
C556        C557   1.405       .  A
C556        H561   1.083       .  S
C557        C558   1.405       .  A
C558        H562   1.082       .  S
C559        C564   1.405       .  A
C559        C568   1.406       .  A
C564        C565   1.405   1_565  A
C564        H569   1.083       .  S
C565        C566   1.410       .  A
C565        H570   1.083       .  S
C566        C567   1.404   1_545  A
C567        C568   1.398       .  A
C567        H571   1.083       .  S
C568        H572   1.083       .  S
C573        C574   1.409       .  A
C573        C578   1.408       .  A
C573        H583   1.083       .  S
C574        C575   1.406       .  A
C574        C579   1.498       .  S
C575        C576   1.401       .  A
C575        H580   1.083       .  S
C576        C577   1.408       .  A
C576        H581   1.083       .  S
C577        C578   1.410       .  A
C578        H582   1.083       .  S
C579        C584   1.407       .  A
C579        C588   1.407       .  A
C584        C585   1.405       .  A
C584        H589   1.083       .  S
C585        C586   1.410       .  A
C585        H590   1.080       .  S
C586        C587   1.408       .  A
C587        C588   1.402       .  A
C587        H591   1.082       .  S
C588        H592   1.083       .  S
C593        C594   1.408       .  A
C593        C598   1.406       .  A
C593        H603   1.083       .  S
C594        C595   1.400       .  A
C594        C599   1.478       .  S
C595        C596   1.390       .  A
C595        H600   1.083       .  S
C596        C597   1.403   1_556  A
C596        H601   1.083   1_556  S
C597        C598   1.403   1_554  A
C598        H602   1.082   1_556  S
C599        C604   1.401       .  A
C599        C608   1.405       .  A
C604        C605   1.400       .  A
C604        H609   1.083       .  S
C605        C606   1.409       .  A
C605        H610   1.083       .  S
C606        C607   1.404       .  A
C607        C608   1.398       .  A
C607        H611   1.083       .  S
C608        H612   1.083       .  S
C613        C614   1.409       .  A
C613        C618   1.398       .  A
C613        H623   1.081       .  S
C614        C615   1.412       .  A
C614        C619   1.505       .  S
C615        C616   1.407       .  A
C615        H620   1.082       .  S
C616        C617   1.406       .  A
C616        H621   1.082       .  S
C617        C618   1.404       .  A
C618        H622   1.083       .  S
C619        C624   1.410       .  A
C619        C628   1.412       .  A
C624        C625   1.397       .  A
C624        H629   1.082       .  S
C625        C626   1.403       .  A
C625        H630   1.083       .  S
C626        C627   1.406       .  A
C627        C628   1.408       .  A
C627        H631   1.083       .  S
C628        H632   1.081       .  S
C633        C634   1.408       .  A
C633        C638   1.404       .  A
C633        H643   1.083       .  S
C634        C635   1.407       .  A
C634        C639   1.497       .  S
C635        C636   1.402       .  A
C635        H640   1.083       .  S
C636        C637   1.407       .  A
C636        H641   1.082       .  S
C637        C638   1.408       .  A
C638        H642   1.082       .  S
C639        C644   1.407       .  A
C639        C648   1.408       .  A
C644        C645   1.404       .  A
C644        H649   1.083       .  S
C645        C646   1.408       .  A
C645        H650   1.083       .  S
C646        C647   1.407       .  A
C647        C648   1.402       .  A
C647        H651   1.083       .  S
C648        H652   1.083       .  S
C653        C654   1.406       .  A
C653        C658   1.403       .  A
C653        H663   1.083       .  S
C654        C655   1.407       .  A
C654        C659   1.495       .  S
C655        C656   1.402       .  A
C655        H660   1.083       .  S
C656        C657   1.407       .  A
C656        H661   1.083       .  S
C657        C658   1.408       .  A
C658        H662   1.082       .  S
C659        C664   1.408       .  A
C659        C668   1.406       .  A
C664        C665   1.405       .  A
C664        H669   1.083       .  S
C665        C666   1.408       .  A
C665        H670   1.083       .  S
C666        C667   1.408       .  A
C667        C668   1.400       .  A
C667        H671   1.083       .  S
C668        H672   1.083       .  S
C673        C674   1.407       .  A
C673        C678   1.399       .  A
C673        H683   1.083       .  S
C674        C675   1.403       .  A
C674        C679   1.487       .  S
C675        C676   1.403   1_556  A
C675        H680   1.083       .  S
C676        C677   1.410       .  A
C676        H681   1.083       .  S
C677        C678   1.405   1_554  A
C678        H682   1.083       .  S
C679        C684   1.401       .  A
C679        C688   1.410       .  A
C684        C685   1.392       .  A
C684        H689   1.083       .  S
C685        C686   1.407       .  A
C685        H690   1.083       .  S
C686        C687   1.405       .  A
C687        C688   1.408       .  A
C687        H691   1.082       .  S
C688        H692   1.083       .  S
C693        C694   1.407       .  A
C693        C698   1.401       .  A
C693        H703   1.083       .  S
C694        C695   1.407       .  A
C694        C699   1.494       .  S
C695        C696   1.402       .  A
C695        H700   1.082       .  S
C696        C697   1.405       .  A
C696        H701   1.083       .  S
C697        C698   1.406       .  A
C698        H702   1.083       .  S
C699        C704   1.407       .  A
C699        C708   1.408       .  A
C704        C705   1.401       .  A
C704        H709   1.083       .  S
C705        C706   1.407       .  A
C705        H710   1.083       .  S
C706        C707   1.407       .  A
C707        C708   1.402       .  A
C707        H711   1.083       .  S
C708        H712   1.083       .  S
C713        C714   1.403       .  A
C713        C718   1.393       .  A
C713        H723   1.083       .  S
C714        C715   1.408       .  A
C714        C719   1.483       .  S
C715        C716   1.403       .  A
C715        H720   1.083       .  S
C716        C717   1.402       .  A
C716        H721   1.082       .  S
C717        C718   1.403       .  A
C718        H722   1.083       .  S
C719        C724   1.404       .  A
C719        C728   1.406       .  A
C724        C725   1.396   1_556  A
C724        H729   1.083       .  S
C725        C726   1.407       .  A
C725        H730   1.083       .  S
C726        C727   1.406   1_554  A
C727        C728   1.400       .  A
C727        H731   1.083       .  S
C728        H732   1.083       .  S
C733        C734   1.403       .  A
C733        C738   1.402       .  A
C733        H743   1.083       .  S
C734        C735   1.408       .  A
C734        C739   1.486       .  S
C735        C736   1.401       .  A
C735        H740   1.083       .  S
C736        C737   1.404       .  A
C736        H741   1.083       .  S
C737        C738   1.409       .  A
C738        H742   1.083       .  S
C739        C744   1.410       .  A
C739        C748   1.401       .  A
C744        C745   1.409       .  A
C744        H749   1.083       .  S
C745        C746   1.404       .  A
C745        H750   1.082       .  S
C746        C747   1.405       .  A
C747        C748   1.392       .  A
C747        H751   1.083       .  S
C748        H752   1.083       .  S
C753        C754   1.408       .  A
C753        C758   1.405       .  A
C753        H763   1.083       .  S
C754        C755   1.408       .  A
C754        C759   1.499       .  S
C755        C756   1.404       .  A
C755        H760   1.082       .  S
C756        C757   1.407       .  A
C756        H761   1.083       .  S
C757        C758   1.409       .  A
C758        H762   1.083       .  S
C759        C764   1.408       .  A
C759        C768   1.408       .  A
C764        C765   1.404       .  A
C764        H769   1.083       .  S
C765        C766   1.406       .  A
C765        H770   1.079       .  S
C766        C767   1.407       .  A
C767        C768   1.404       .  A
C767        H771   1.083       .  S
C768        H772   1.083       .  S
C773        C774   1.413       .  A
C773        C778   1.408       .  A
C773        H783   1.081       .  S
C774        C775   1.409       .  A
C774        C779   1.509       .  S
C775        C776   1.399       .  A
C775        H780   1.081       .  S
C776        C777   1.405       .  A
C776        H781   1.083       .  S
C777        C778   1.407       .  A
C778        H782   1.081       .  S
C779        C784   1.412       .  A
C779        C788   1.411       .  A
C784        C785   1.408       .  A
C784        H789   1.082       .  S
C785        C786   1.406       .  A
C785        H790   1.083       .  S
C786        C787   1.404       .  A
C787        C788   1.400       .  A
C787        H791   1.084       .  S
C788        H792   1.081       .  S
C793        C794   1.404       .  A
C793        C798   1.394   1_655  A
C793        H803   1.083       .  S
C794        C795   1.409   1_655  A
C794        C799   1.488       .  S
C795        C796   1.405       .  A
C795        H800   1.083       .  S
C796        C797   1.404       .  A
C796        H801   1.083       .  S
C797        C798   1.402       .  A
C798        H802   1.083       .  S
C799        C804   1.406       .  A
C799        C808   1.405       .  A
C804        C805   1.402       .  A
C804        H809   1.083       .  S
C805        C806   1.408       .  A
C805        H810   1.083       .  S
C806        C807   1.408       .  A
C807        C808   1.399       .  A
C807        H811   1.083       .  S
C808        H812   1.083       .  S
C813        C814   1.408       .  A
C813        C818   1.406       .  A
C813        H823   1.083       .  S
C814        C815   1.408       .  A
C814        C819   1.501       .  S
C815        C816   1.403       .  A
C815        H820   1.083       .  S
C816        C817   1.407       .  A
C816        H821   1.083       .  S
C817        C818   1.410       .  A
C818        H822   1.083       .  S
C819        C824   1.407       .  A
C819        C828   1.411       .  A
C824        C825   1.400       .  A
C824        H829   1.083       .  S
C825        C826   1.404       .  A
C825        H830   1.083       .  S
C826        C827   1.406       .  A
C827        C828   1.408       .  A
C827        H831   1.083       .  S
C828        H832   1.082       .  S
C833        C834   1.410   1_455  A
C833        C838   1.402       .  A
C833        H843   1.082       .  S
C834        C835   1.408       .  A
C834        C839   1.496       .  S
C835        C836   1.395   1_655  A
C835        H840   1.082       .  S
C836        C837   1.401       .  A
C836        H841   1.081       .  S
C837        C838   1.404       .  A
C838        H842   1.082       .  S
C839        C844   1.410       .  A
C839        C848   1.411       .  A
C844        C845   1.402       .  A
C844        H849   1.082       .  S
C845        C846   1.403       .  A
C845        H850   1.084       .  S
C846        C847   1.399       .  A
C847        C848   1.397       .  A
C847        H851   1.083       .  S
C848        H852   1.082       .  S
C853        C854   1.409       .  A
C853        C858   1.395       .  A
C853        H863   1.082       .  S
C854        C855   1.413       .  A
C854        C859   1.501       .  S
C855        C856   1.403   1_565  A
C855        H860   1.081       .  S
C856        C857   1.402       .  A
C856        H861   1.083       .  S
C857        C858   1.401   1_545  A
C858        H862   1.083       .  S
C859        C864   1.413       .  A
C859        C868   1.410       .  A
C864        C865   1.398       .  A
C864        H869   1.081       .  S
C865        C866   1.399       .  A
C865        H870   1.083       .  S
C866        C867   1.403       .  A
C867        C868   1.402       .  A
C867        H871   1.083       .  S
C868        H872   1.081       .  S
C873        C874   1.408       .  A
C873        C878   1.405       .  A
C873        H883   1.083       .  S
C874        C875   1.407       .  A
C874        C879   1.495       .  S
C875        C876   1.401       .  A
C875        H880   1.082       .  S
C876        C877   1.406       .  A
C876        H881   1.083       .  S
C877        C878   1.408       .  A
C878        H882   1.083       .  S
C879        C884   1.407       .  A
C879        C888   1.407       .  A
C884        C885   1.403       .  A
C884        H889   1.083       .  S
C885        C886   1.406       .  A
C885        H890   1.079       .  S
C886        C887   1.406       .  A
C887        C888   1.403       .  A
C887        H891   1.083       .  S
C888        H892   1.083       .  S
C893        C894   1.408       .  A
C893        C898   1.405       .  A
C893        H903   1.083       .  S
C894        C895   1.408       .  A
C894        C899   1.499       .  S
C895        C896   1.402       .  A
C895        H900   1.083       .  S
C896        C897   1.408       .  A
C896        H901   1.083       .  S
C897        C898   1.408       .  A
C898        H902   1.083       .  S
C899        C904   1.408       .  A
C899        C908   1.407       .  A
C904        C905   1.405       .  A
C904        H909   1.083       .  S
C905        C906   1.408       .  A
C905        H910   1.082       .  S
C906        C907   1.407       .  A
C907        C908   1.402       .  A
C907        H911   1.083       .  S
C908        H912   1.082       .  S
C913        C914   1.406       .  A
C913        C918   1.398       .  A
C913        H923   1.083       .  S
C914        C915   1.408       .  A
C914        C919   1.491       .  S
C915        C916   1.402       .  A
C915        H920   1.083       .  S
C916        C917   1.407       .  A
C916        H921   1.083       .  S
C917        C918   1.407       .  A
C918        H922   1.083       .  S
C919        C924   1.409       .  A
C919        C928   1.406       .  A
C924        C925   1.404   1_556  A
C924        H929   1.083       .  S
C925        C926   1.404       .  A
C925        H930   1.083       .  S
C926        C927   1.402   1_554  A
C927        C928   1.395       .  A
C927        H931   1.083       .  S
C928        H932   1.083       .  S
C933        C934   1.408       .  A
C933        C938   1.407       .  A
C933        H943   1.083       .  S
C934        C935   1.399       .  A
C934        C939   1.478       .  S
C935        C936   1.389       .  A
C935        H940   1.084       .  S
C936        C937   1.405       .  A
C936        H941   1.083       .  S
C937        C938   1.405       .  A
C938        H942   1.082       .  S
C939        C944   1.402       .  A
C939        C948   1.404       .  A
C944        C945   1.402       .  A
C944        H949   1.083       .  S
C945        C946   1.410       .  A
C945        H950   1.083       .  S
C946        C947   1.405       .  A
C947        C948   1.397       .  A
C947        H951   1.083       .  S
C948        H952   1.083       .  S
C953        C954   1.407       .  A
C953        C958   1.406       .  A
C953        H963   1.083       .  S
C954        C955   1.408       .  A
C954        C959   1.498       .  S
C955        C956   1.404       .  A
C955        H960   1.083       .  S
C956        C957   1.406       .  A
C956        H961   1.083       .  S
C957        C958   1.409       .  A
C958        H962   1.083       .  S
C959        C964   1.407       .  A
C959        C968   1.407       .  A
C964        C965   1.405       .  A
C964        H969   1.083       .  S
C965        C966   1.406       .  A
C965        H970   1.078       .  S
C966        C967   1.407       .  A
C967        C968   1.404       .  A
C967        H971   1.083       .  S
C968        H972   1.082       .  S
C973        C974   1.407       .  A
C973        C978   1.404       .  A
C973        H983   1.083       .  S
C974        C975   1.407       .  A
C974        C979   1.494       .  S
C975        C976   1.403       .  A
C975        H980   1.083       .  S
C976        C977   1.407       .  A
C976        H981   1.083       .  S
C977        C978   1.408       .  A
C978        H982   1.083       .  S
C979        C984   1.406       .  A
C979        C988   1.406       .  A
C984        C985   1.403       .  A
C984        H989   1.083       .  S
C985        C986   1.406       .  A
C985        H990   1.080       .  S
C986        C987   1.406       .  A
C987        C988   1.403       .  A
C987        H991   1.083       .  S
C988        H992   1.083       .  S
C993        C994   1.405       .  A
C993        C998   1.402       .  A
C993       H1003   1.083   1_554  S
C994        C995   1.404       .  A
C994        C999   1.486       .  S
C995        C996   1.400       .  A
C995       H1000   1.083       .  S
C996        C997   1.408       .  A
C996       H1001   1.083       .  S
C997        C998   1.409       .  A
C998       H1002   1.083       .  S
C999       C1004   1.408       .  A
C999       C1008   1.404       .  A
C1004      C1005   1.403       .  A
C1004      H1009   1.083       .  S
C1005      C1006   1.402   1_554  A
C1005      H1010   1.081       .  S
C1006      C1007   1.405       .  A
C1007      C1008   1.398   1_556  A
C1007      H1011   1.083       .  S
C1008      H1012   1.083       .  S
C1013      C1014   1.408       .  A
C1013      C1018   1.407       .  A
C1013      H1023   1.083       .  S
C1014      C1015   1.407       .  A
C1014      C1019   1.497       .  S
C1015      C1016   1.403       .  A
C1015      H1020   1.083       .  S
C1016      C1017   1.407       .  A
C1016      H1021   1.083       .  S
C1017      C1018   1.409       .  A
C1018      H1022   1.083       .  S
C1019      C1024   1.407       .  A
C1019      C1028   1.407       .  A
C1024      C1025   1.406       .  A
C1024      H1029   1.083       .  S
C1025      C1026   1.407       .  A
C1025      H1030   1.080       .  S
C1026      C1027   1.406       .  A
C1027      C1028   1.404       .  A
C1027      H1031   1.083       .  S
C1028      H1032   1.083       .  S
C1033      C1034   1.407       .  A
C1033      C1038   1.403       .  A
C1033      H1043   1.083       .  S
C1034      C1035   1.406       .  A
C1034      C1039   1.494       .  S
C1035      C1036   1.401       .  A
C1035      H1040   1.083       .  S
C1036      C1037   1.406       .  A
C1036      H1041   1.082       .  S
C1037      C1038   1.407       .  A
C1038      H1042   1.083       .  S
C1039      C1044   1.407       .  A
C1039      C1048   1.407       .  A
C1044      C1045   1.404       .  A
C1044      H1049   1.083       .  S
C1045      C1046   1.408       .  A
C1045      H1050   1.083       .  S
C1046      C1047   1.406       .  A
C1047      C1048   1.401       .  A
C1047      H1051   1.083       .  S
C1048      H1052   1.083       .  S
C1053      C1054   1.399       .  A
C1053      C1058   1.391       .  A
C1053      H1063   1.083       .  S
C1054      C1055   1.409       .  A
C1054      C1059   1.481       .  S
C1055      C1056   1.408       .  A
C1055      H1060   1.083       .  S
C1056      C1057   1.404       .  A
C1056      H1061   1.082       .  S
C1057      C1058   1.405       .  A
C1058      H1062   1.083       .  S
C1059      C1064   1.405       .  A
C1059      C1068   1.402       .  A
C1064      C1065   1.400       .  A
C1064      H1069   1.083       .  S
C1065      C1066   1.405       .  A
C1065      H1070   1.083       .  S
C1066      C1067   1.410       .  A
C1067      C1068   1.402       .  A
C1067      H1071   1.083       .  S
C1068      H1072   1.083       .  S
C1073      C1074   1.411       .  A
C1073      C1078   1.399       .  A
C1073      H1083   1.082       .  S
C1074      C1075   1.411       .  A
C1074      C1079   1.505       .  S
C1075      C1076   1.405       .  A
C1075      H1080   1.081       .  S
C1076      C1077   1.406       .  A
C1076      H1081   1.083       .  S
C1077      C1078   1.403       .  A
C1078      H1082   1.083       .  S
C1079      C1084   1.409       .  A
C1079      C1088   1.412       .  A
C1084      C1085   1.397       .  A
C1084      H1089   1.081       .  S
C1085      C1086   1.403       .  A
C1085      H1090   1.083       .  S
C1086      C1087   1.406       .  A
C1087      C1088   1.406       .  A
C1087      H1091   1.081       .  S
C1088      H1092   1.082       .  S
C1093      C1094   1.409       .  A
C1093      C1098   1.406       .  A
C1093      H1103   1.083       .  S
C1094      C1095   1.406       .  A
C1094      C1099   1.491       .  S
C1095      C1096   1.395       .  A
C1095      H1100   1.083       .  S
C1096      C1097   1.402       .  A
C1096      H1101   1.083       .  S
C1097      C1098   1.405       .  A
C1098      H1102   1.083       .  S
C1099      C1104   1.409       .  A
C1099      C1108   1.403       .  A
C1104      C1105   1.406       .  A
C1104      H1109   1.083       .  S
C1105      C1106   1.407       .  A
C1105      H1110   1.083       .  S
C1106      C1107   1.408       .  A
C1107      C1108   1.395       .  A
C1107      H1111   1.083       .  S
C1108      H1112   1.083       .  S
C1113      C1114   1.409       .  A
C1113      C1118   1.405       .  A
C1113      H1123   1.083       .  S
C1114      C1115   1.401       .  A
C1114      C1119   1.482       .  S
C1115      C1116   1.390       .  A
C1115      H1120   1.083       .  S
C1116      C1117   1.404       .  A
C1116      H1121   1.083       .  S
C1117      C1118   1.403       .  A
C1118      H1122   1.082       .  S
C1119      C1124   1.403       .  A
C1119      C1128   1.406       .  A
C1124      C1125   1.400       .  A
C1124      H1129   1.083       .  S
C1125      C1126   1.407       .  A
C1125      H1130   1.083       .  S
C1126      C1127   1.404       .  A
C1127      C1128   1.396       .  A
C1127      H1131   1.083       .  S
C1128      H1132   1.083       .  S
C1133      C1134   1.409       .  A
C1133      C1138   1.402       .  A
C1133      H1143   1.082       .  S
C1134      C1135   1.409       .  A
C1134      C1139   1.500       .  S
C1135      C1136   1.405       .  A
C1135      H1140   1.083       .  S
C1136      C1137   1.408       .  A
C1136      H1141   1.082       .  S
C1137      C1138   1.405       .  A
C1138      H1142   1.083       .  S
C1139      C1144   1.407       .  A
C1139      C1148   1.409       .  A
C1144      C1145   1.401       .  A
C1144      H1149   1.083       .  S
C1145      C1146   1.407       .  A
C1145      H1150   1.083       .  S
C1146      C1147   1.409       .  A
C1147      C1148   1.406       .  A
C1147      H1151   1.083       .  S
C1148      H1152   1.083       .  S
C1153      C1154   1.405       .  A
C1153      C1158   1.399       .  A
C1153      H1163   1.083       .  S
C1154      C1155   1.406       .  A
C1154      C1159   1.488       .  S
C1155      C1156   1.403       .  A
C1155      H1160   1.083       .  S
C1156      C1157   1.408       .  A
C1156      H1161   1.083       .  S
C1157      C1158   1.407       .  A
C1158      H1162   1.083       .  S
C1159      C1164   1.405       .  A
C1159      C1168   1.409       .  A
C1164      C1165   1.396       .  A
C1164      H1169   1.083       .  S
C1165      C1166   1.403       .  A
C1165      H1170   1.083       .  S
C1166      C1167   1.402       .  A
C1167      C1168   1.404       .  A
C1167      H1171   1.082       .  S
C1168      H1172   1.083       .  S
C1173      C1174   1.407       .  A
C1173      C1178   1.403       .  A
C1173      H1183   1.083       .  S
C1174      C1175   1.408       .  A
C1174      C1179   1.497       .  S
C1175      C1176   1.404       .  A
C1175      H1180   1.083       .  S
C1176      C1177   1.408       .  A
C1176      H1181   1.083       .  S
C1177      C1178   1.407       .  A
C1178      H1182   1.083       .  S
C1179      C1184   1.407       .  A
C1179      C1188   1.408       .  A
C1184      C1185   1.402       .  A
C1184      H1189   1.083       .  S
C1185      C1186   1.405       .  A
C1185      H1190   1.079       .  S
C1186      C1187   1.407       .  A
C1187      C1188   1.405       .  A
C1187      H1191   1.083       .  S
C1188      H1192   1.083       .  S
C1193      C1194   1.407       .  A
C1193      C1198   1.402       .  A
C1193      H1203   1.083       .  S
C1194      C1195   1.408       .  A
C1194      C1199   1.498       .  S
C1195      C1196   1.404       .  A
C1195      H1200   1.083       .  S
C1196      C1197   1.407       .  A
C1196      H1201   1.083       .  S
C1197      C1198   1.408       .  A
C1198      H1202   1.082       .  S
C1199      C1204   1.408       .  A
C1199      C1208   1.407       .  A
C1204      C1205   1.405       .  A
C1204      H1209   1.083       .  S
C1205      C1206   1.408       .  A
C1205      H1210   1.083       .  S
C1206      C1207   1.408       .  A
C1207      C1208   1.403       .  A
C1207      H1211   1.083       .  S
C1208      H1212   1.083       .  S
C1213      C1214   1.409       .  A
C1213      C1218   1.407       .  A
C1213      H1223   1.083       .  S
C1214      C1215   1.400       .  A
C1214      C1219   1.480       .  S
C1215      C1216   1.390       .  A
C1215      H1220   1.083       .  S
C1216      C1217   1.405       .  A
C1216      H1221   1.083       .  S
C1217      C1218   1.403       .  A
C1218      H1222   1.082       .  S
C1219      C1224   1.401       .  A
C1219      C1228   1.407       .  A
C1224      C1225   1.400       .  A
C1224      H1229   1.083       .  S
C1225      C1226   1.409       .  A
C1225      H1230   1.083       .  S
C1226      C1227   1.403       .  A
C1227      C1228   1.399       .  A
C1227      H1231   1.083       .  S
C1228      H1232   1.083       .  S
C1233      C1234   1.402       .  A
C1233      C1238   1.391       .  A
C1233      H1243   1.083       .  S
C1234      C1235   1.409   1_545  A
C1234      C1239   1.482       .  S
C1235      C1236   1.406       .  A
C1235      H1240   1.083       .  S
C1236      C1237   1.403       .  A
C1236      H1241   1.082       .  S
C1237      C1238   1.404   1_565  A
C1238      H1242   1.083       .  S
C1239      C1244   1.406       .  A
C1239      C1248   1.404       .  A
C1244      C1245   1.396       .  A
C1244      H1249   1.083       .  S
C1245      C1246   1.404       .  A
C1245      H1250   1.083       .  S
C1246      C1247   1.408       .  A
C1247      C1248   1.401       .  A
C1247      H1251   1.083       .  S
C1248      H1252   1.083   1_545  S
C1253      C1254   1.409       .  A
C1253      C1258   1.408       .  A
C1253      H1263   1.083       .  S
C1254      C1255   1.407       .  A
C1254      C1259   1.501       .  S
C1255      C1256   1.402       .  A
C1255      H1260   1.083       .  S
C1256      C1257   1.407       .  A
C1256      H1261   1.083       .  S
C1257      C1258   1.409       .  A
C1258      H1262   1.082       .  S
C1259      C1264   1.409       .  A
C1259      C1268   1.408       .  A
C1264      C1265   1.408       .  A
C1264      H1269   1.083       .  S
C1265      C1266   1.410       .  A
C1265      H1270   1.083       .  S
C1266      C1267   1.408       .  A
C1267      C1268   1.402       .  A
C1267      H1271   1.083       .  S
C1268      H1272   1.083       .  S
C1273      C1274   1.414       .  A
C1273      C1278   1.410       .  A
C1273      H1283   1.081       .  S
C1274      C1275   1.411       .  A
C1274      C1279   1.512       .  S
C1275      C1276   1.400       .  A
C1275      H1280   1.081       .  S
C1276      C1277   1.404       .  A
C1276      H1281   1.083       .  S
C1277      C1278   1.407       .  A
C1278      H1282   1.082       .  S
C1279      C1284   1.413       .  A
C1279      C1288   1.411       .  A
C1284      C1285   1.410       .  A
C1284      H1289   1.081       .  S
C1285      C1286   1.407       .  A
C1285      H1290   1.083       .  S
C1286      C1287   1.404       .  A
C1287      C1288   1.400       .  A
C1287      H1291   1.083       .  S
C1288      H1292   1.081       .  S
C1293      C1294   1.409       .  A
C1293      C1298   1.403       .  A
C1293      H1303   1.083       .  S
C1294      C1295   1.406       .  A
C1294      C1299   1.490       .  S
C1295      C1296   1.395       .  A
C1295      H1300   1.082       .  S
C1296      C1297   1.402       .  A
C1296      H1301   1.083       .  S
C1297      C1298   1.404       .  A
C1298      H1302   1.082       .  S
C1299      C1304   1.408       .  A
C1299      C1308   1.405       .  A
C1304      C1305   1.402       .  A
C1304      H1309   1.083       .  S
C1305      C1306   1.406       .  A
C1305      H1310   1.083       .  S
C1306      C1307   1.407       .  A
C1307      C1308   1.398       .  A
C1307      H1311   1.083       .  S
C1308      H1312   1.083       .  S
