geometry optimzed in LAMMPS
_audit_creation_date              2020-11-30 
_audit_creation_method            'lammps2cif' 
_symmetry_space_group_name_H-M    'P1' 
_symmetry_Int_Tables_number       1 
_symmetry_cell_setting            triclinic 
loop_ 
_symmetry_equiv_pos_as_xyz 
  x,y,z 
_cell_length_a                    58.54563621 
_cell_length_b                    58.538456774986514 
_cell_length_c                    47.42096678488857 
_cell_angle_alpha                 90.16217645494535 
_cell_angle_beta                  89.9289261492273 
_cell_angle_gamma                 120.01112501147095 
loop_ 
_atom_site_label 
_atom_site_type_symbol 
_atom_site_fract_x 
_atom_site_fract_y 
_atom_site_fract_z 
_atom_site_charge 
C1          C  0.44007978  0.23191455  0.13003831     0.80200
N2          N  0.43941300  0.21993478  0.15475395    -0.78100
C3          C  0.43694571  0.19559143  0.15471449     0.82600
N4          N  0.43567659  0.18350250  0.12977657    -0.78100
C5          C  0.43605174  0.19514865  0.10486626     0.82700
N6          N  0.43839899  0.21946144  0.10526881    -0.79800
C7          C  0.26921565  0.87026469  0.37136893     0.80200
N8          N  0.25897022  0.85950074  0.34578669    -0.78100
C9          C  0.23611239  0.83612134  0.34395762     0.82600
N10         N  0.22368636  0.82329311  0.36784177    -0.78100
C11         C  0.23378229  0.83346531  0.39360816     0.82700
N12         N  0.25675546  0.85700014  0.39532088    -0.79800
C13         C  0.88678798  0.21533923  0.11981164     0.80200
N14         N  0.89846237  0.22805736  0.14421257    -0.78100
C15         C  0.92127606  0.25162496  0.14339226     0.82600
N16         N  0.93232007  0.26228339  0.11816043    -0.78100
C17         C  0.92094435  0.24947744  0.09380671     0.82700
N18         N  0.89789014  0.22625685  0.09466112    -0.79800
C19         C  0.72456949  0.85434711  0.37747272     0.80200
N20         N  0.71972095  0.86391784  0.35351120    -0.78100
C21         C  0.71654735  0.88534887  0.35445381     0.82600
N22         N  0.71842395  0.89722165  0.37959528    -0.78100
C23         C  0.72318602  0.88796653  0.40373563     0.82700
N24         N  0.72582948  0.86619904  0.40257852    -0.79800
C25         C  0.91634513  0.68766990  0.12234500     0.80200
N26         N  0.90485753  0.68788190  0.14729044    -0.78100
C27         C  0.88165630  0.68791571  0.14749167     0.82600
N28         N  0.86979016  0.68715934  0.12278441    -0.78100
C29         C  0.88076414  0.68670453  0.09782258     0.82700
N30         N  0.90389568  0.68658994  0.09771575    -0.79800
C31         C  0.25582774  0.40509350  0.37337157     0.80200
N32         N  0.26836176  0.40465324  0.34941365    -0.78100
C33         C  0.29254473  0.40677984  0.35071839     0.82600
N34         N  0.30444191  0.41028711  0.37616716    -0.78100
C35         C  0.29232665  0.41113244  0.40025455     0.82700
N36         N  0.26798319  0.40846267  0.39865246    -0.79800
Zn37       Zn  0.04565059  0.41590019  0.40424666     1.49700
Zn38       Zn  0.04587264  0.41777466  0.33730386     1.49400
Zn39       Zn  0.99199147  0.38193908  0.37073601     1.49100
Zn40       Zn  0.01812155  0.44412466  0.37284309     1.49500
O41         O  0.02547777  0.41500989  0.37118564    -1.84200
O42         O  0.07923504  0.41648366  0.39366746    -0.74800
O43         O  0.02436443  0.38752993  0.31068473    -0.74600
O44         O  0.98838781  0.35895742  0.40354556    -0.74100
O45         O  0.07905168  0.41670972  0.34685533    -0.74800
O46         O  0.02473356  0.38399407  0.42829145    -0.74400
O47         O  0.98816044  0.36199061  0.33536381    -0.75000
O48         O  0.97902679  0.43149097  0.37297341    -0.74400
O49         O  0.05617179  0.45179359  0.31682528    -0.75100
O50         O  0.96113336  0.38799841  0.37252309    -0.74500
O51         O  0.03476581  0.46843046  0.33995951    -0.75000
O52         O  0.03363192  0.46573618  0.40797723    -0.74900
O53         O  0.05454733  0.44740569  0.42839741    -0.74700
C54         C  0.08977196  0.41653201  0.37016543     0.77100
C55         C  0.00203799  0.36660492  0.31321022     0.77600
C56         C  0.00271363  0.36286932  0.42515613     0.76600
C57         C  0.95881644  0.40847839  0.37301804     0.76900
C58         C  0.04993251  0.46962007  0.32006963     0.78100
C59         C  0.04785075  0.46497335  0.42784666     0.77100
Zn60       Zn  0.15848161  0.66724739  0.15543758     1.49700
Zn61       Zn  0.10448233  0.63528063  0.12186124     1.49400
Zn62       Zn  0.13802228  0.69878801  0.11887107     1.49100
Zn63       Zn  0.15926813  0.66424639  0.08881893     1.49500
O64         O  0.13988885  0.66638516  0.12117597    -1.84200
O65         O  0.13771486  0.63489095  0.17851243    -0.74800
O66         O  0.07654723  0.64597972  0.12116236    -0.74600
O67         O  0.15506818  0.72254124  0.15279244    -0.74100
O68         O  0.09908373  0.61352117  0.15670726    -0.74800
O69         O  0.16552218  0.69801239  0.17952003    -0.74400
O70         O  0.10014243  0.68978623  0.11882658    -0.75000
O71         O  0.16742339  0.69323880  0.06137575    -0.74400
O72         O  0.09948557  0.61078296  0.08933431    -0.75100
O73         O  0.15455118  0.71868996  0.08289107    -0.74500
O74         O  0.13860063  0.62981054  0.06846503    -0.75000
O75         O  0.19399209  0.66817276  0.10032917    -0.74900
O76         O  0.19338657  0.67037055  0.14700449    -0.74700
C77         C  0.11445500  0.61533972  0.17664199     0.77100
C78         C  0.07804847  0.66845635  0.12020020     0.77600
C79         C  0.16376909  0.71856599  0.17578562     0.76600
C80         C  0.16482739  0.71354934  0.06188317     0.76900
C81         C  0.11514434  0.61062438  0.07072185     0.78100
C82         C  0.20498162  0.67081942  0.12417185     0.77100
Zn83       Zn  0.50717420  0.06541677  0.37755555     1.49700
Zn84       Zn  0.52985875  0.11965617  0.41174671     1.49400
Zn85       Zn  0.52934629  0.12013758  0.34484962     1.49100
Zn86       Zn  0.47538876  0.09718947  0.37943640     1.49500
O87         O  0.51031201  0.10041231  0.37834514    -1.84200
O88         O  0.52471560  0.06037574  0.41186399    -0.74800
O89         O  0.56034914  0.15518471  0.40174981    -0.74600
O90         O  0.54408717  0.10096237  0.32313441    -0.74100
O91         O  0.54340552  0.09942456  0.43298799    -0.74800
O92         O  0.52644678  0.06178364  0.34370143    -0.74400
O93         O  0.55945114  0.15642053  0.35499825    -0.75000
O94         O  0.46883575  0.11257939  0.34429777    -0.74400
O95         O  0.50723528  0.12649265  0.43828568    -0.75100
O96         O  0.50494021  0.12459997  0.31866438    -0.74500
O97         O  0.47065085  0.11479607  0.41423985    -0.75000
O98         O  0.44721915  0.05872942  0.37994841    -0.74900
O99         O  0.46864390  0.03639742  0.37675958    -0.74700
C100        C  0.53909559  0.07592160  0.43140470     0.77100
C101        C  0.56931984  0.16735930  0.37859730     0.77600
C102        C  0.54099602  0.07789651  0.32467705     0.76600
C103        C  0.48192166  0.12144499  0.32155031     0.76900
C104        C  0.48463556  0.12451685  0.43632491     0.78100
C105        C  0.44717001  0.03695859  0.37838982     0.77100
Zn106      Zn  0.65318037  0.02003069  0.12718434     1.49700
Zn107      Zn  0.68301235  0.98642616  0.12875144     1.49400
Zn108      Zn  0.62832697  0.96604823  0.16153931     1.49100
Zn109      Zn  0.62912618  0.96515171  0.09444969     1.49500
O110        O  0.64850298  0.98447901  0.12800294    -1.84200
O111        O  0.69172932  0.04740407  0.12695533    -0.74800
O112        O  0.68723287  0.96930135  0.16371675    -0.74600
O113        O  0.61846214  0.98882086  0.18445978    -0.74100
O114        O  0.71241464  0.02429739  0.12843671    -0.74800
O115        O  0.63640293  0.02671619  0.16111173    -0.74400
O116        O  0.64942610  0.95582044  0.18638754    -0.75000
O117        O  0.59662411  0.93103798  0.10478825    -0.74400
O118        O  0.68781069  0.96799664  0.09503715    -0.75100
O119        O  0.59516478  0.93233194  0.15143435    -0.74500
O120        O  0.65121945  0.95540685  0.07036209    -0.75000
O121        O  0.61771689  0.98645428  0.07118266    -0.74900
O122        O  0.63598261  0.02531796  0.09288415    -0.74700
C123        C  0.71288488  0.04628766  0.12781864     0.77100
C124        C  0.67219941  0.95815159  0.18472459     0.77600
C125        C  0.62322700  0.01244529  0.18189458     0.76600
C126        C  0.58543876  0.92075927  0.12807801     0.76900
C127        C  0.67344103  0.95675163  0.07355642     0.78100
C128        C  0.62196840  0.00996779  0.07308294     0.77100
C129        C  0.72759608  0.35059365  0.38293793     0.80200
N130        N  0.75239071  0.35418439  0.38223091    -0.78100
C131        C  0.77369000  0.37882959  0.38005708     0.82600
N132        N  0.77002120  0.39993676  0.37869149    -0.78100
C133        C  0.74534056  0.39655820  0.37880159     0.82700
N134        N  0.72423545  0.37187126  0.38104388    -0.79800
C135        C  0.43550561  0.73314509  0.12809893     0.80200
N136        N  0.44116514  0.71333684  0.12918790    -0.78100
C137        C  0.42144087  0.68780692  0.12980508     0.82600
N138        N  0.39597967  0.68220083  0.12996606    -0.78100
C139        C  0.39004342  0.70181946  0.12970452     0.82700
N140        N  0.40996603  0.72726529  0.12862663    -0.79800
Zn141      Zn  0.46178186  0.49861886  0.09358419     1.49700
Zn142      Zn  0.46389369  0.49557690  0.16005043     1.49400
Zn143      Zn  0.42783940  0.44328928  0.12517207     1.49100
Zn144      Zn  0.49068561  0.47076028  0.12193434     1.49500
O145        O  0.46097437  0.47693645  0.12509363    -1.84200
O146        O  0.46128506  0.53111776  0.10683298    -0.74800
O147        O  0.43525962  0.47277242  0.18704133    -0.74600
O148        O  0.40541104  0.44048075  0.09157498    -0.74100
O149        O  0.46017978  0.52730668  0.15346465    -0.74800
O150        O  0.43006886  0.47805971  0.06903227    -0.74400
O151        O  0.40716095  0.43877234  0.16087733    -0.75000
O152        O  0.47868053  0.43198433  0.12302202    -0.74400
O153        O  0.49907810  0.50833594  0.17812989    -0.75100
O154        O  0.43497766  0.41290213  0.12351280    -0.74500
O155        O  0.51714318  0.48949075  0.15279904    -0.75000
O156        O  0.51068680  0.48593872  0.08599227    -0.74900
O157        O  0.49362073  0.50948798  0.06910586    -0.74700
C158        C  0.45999761  0.53937997  0.13131313     0.77100
C159        C  0.41334647  0.45146285  0.18408682     0.77600
C160        C  0.40924369  0.45554989  0.07064544     0.76600
C161        C  0.45592853  0.41135904  0.12303298     0.76900
C162        C  0.51815155  0.50440779  0.17290598     0.78100
C163        C  0.51050094  0.50185207  0.06790569     0.77100
Zn164      Zn  0.74557127  0.61314871  0.37122845     1.49700
Zn165      Zn  0.71113553  0.63147131  0.40654222     1.49400
Zn166      Zn  0.71114534  0.63261907  0.33905530     1.49100
Zn167      Zn  0.68306127  0.57740881  0.37243174     1.49500
O168        O  0.71260061  0.61365614  0.37229110    -1.84200
O169        O  0.76732457  0.63021070  0.40542946    -0.74800
O170        O  0.71188208  0.66532372  0.39716011    -0.74600
O171        O  0.74281268  0.64395844  0.31382600    -0.74100
O172        O  0.74230028  0.64073591  0.43122591    -0.74800
O173        O  0.76744235  0.63169518  0.33748716    -0.74400
O174        O  0.71090797  0.66574707  0.35033212    -0.75000
O175        O  0.66191210  0.57045607  0.33720608    -0.74400
O176        O  0.67849151  0.60860576  0.42944644    -0.75100
O177        O  0.67905022  0.60927353  0.31576205    -0.74500
O178        O  0.65846719  0.57096128  0.40525691    -0.75000
O179        O  0.69544113  0.55080734  0.37358073    -0.74900
O180        O  0.73888243  0.57613157  0.37024009    -0.74700
C181        C  0.76316078  0.63937619  0.42792973     0.77100
C182        C  0.71163541  0.67629007  0.37410993     0.82000
C183        C  0.76379692  0.64270945  0.31626586     0.76600
C184        C  0.66183502  0.58484620  0.31721835     0.76900
C185        C  0.65943361  0.58518253  0.42610281     0.78100
C186        C  0.71833101  0.55344047  0.37165869     0.77100
C187        C  0.57327468  0.55400831  0.21957823    -0.11400
C188        C  0.58505361  0.53938568  0.22800240     0.15100
C189        C  0.57596447  0.51395730  0.21673368     0.02000
C190        C  0.55441097  0.50316732  0.19834888    -0.15800
C191        C  0.54199651  0.51744218  0.19060895    -0.10600
C192        C  0.55225653  0.54357335  0.20057566     0.08800
C193        C  0.60535063  0.55048398  0.25019294     0.09800
S194        S  0.59077848  0.49425786  0.22534478    -0.24900
H195        H  0.54697508  0.48329282  0.19045009     0.20000
S196        S  0.54007124  0.56492207  0.18925537    -0.30600
H197        H  0.58050125  0.57369558  0.22796616     0.10400
C198        C  0.63046365  0.57236952  0.24508584     0.03600
C199        C  0.64840300  0.58334643  0.26741877    -0.12900
C200        C  0.64169155  0.57286586  0.29479513    -0.08600
C201        C  0.61631997  0.55082180  0.29968969     0.07000
C202        C  0.59862818  0.53978013  0.27730272    -0.13700
S203        S  0.63985822  0.58577763  0.20997976    -0.30600
H204        H  0.66788790  0.59993329  0.26344382     0.11300
S205        S  0.60459202  0.53664267  0.33404900    -0.27700
H206        H  0.57909758  0.52316042  0.28118676     0.08500
H207        H  0.53490810  0.55547338  0.16132943     0.26900
H208        H  0.66509084  0.60662698  0.21701677     0.21700
H209        H  0.61547853  0.56119429  0.34780597     0.27000
H210        H  0.61631467  0.51556345  0.23017262     0.15900
C211        C  0.56412774  0.51109095  0.01605416    -0.11400
C212        C  0.57395098  0.53742128  0.00811710     0.15100
C213        C  0.56196926  0.55141560  0.01874154     0.02000
C214        C  0.54059193  0.53889807  0.03717815    -0.15800
C215        C  0.53107258  0.51272646  0.04580183    -0.10600
C216        C  0.54269214  0.49850489  0.03449746     0.08800
C217        C  0.59735191  0.55175942  0.48739113     0.09800
S218        S  0.57510889  0.58812207  0.50978785    -0.24900
H219        H  0.53197225  0.55008446  0.04568736     0.20000
S220        S  0.53045996  0.46405838  0.04164645    -0.30600
H221        H  0.57294603  0.50014593  0.00738198     0.10400
C222        C  0.62337737  0.55889972  0.49493547     0.03600
C223        C  0.64344825  0.57017058  0.47459838    -0.12900
C224        C  0.63790301  0.57428972  0.44690918    -0.08600
C225        C  0.61190324  0.56753412  0.43959192     0.07000
C226        C  0.59188186  0.55608911  0.45978707    -0.13700
S227        S  0.62970146  0.55360772  0.03146225    -0.30600
H228        H  0.66347688  0.57559301  0.48013316     0.11300
S229        S  0.60317979  0.57380235  0.40519424    -0.27700
H230        H  0.57191838  0.55084238  0.45408724     0.08500
H231        H  0.50370968  0.45710737  0.04183716     0.26900
H232        H  0.65730432  0.56778405  0.02846252     0.21700
H233        H  0.62751874  0.59655865  0.39960626     0.27000
H234        H  0.60178593  0.59550357  0.50642603     0.15900
C235        C  0.41915820  0.62242992  0.11906361    -0.11400
C236        C  0.43967378  0.62565075  0.13679323     0.15100
C237        C  0.45433784  0.64939128  0.15194202     0.02000
C238        C  0.44834132  0.66955383  0.14875333    -0.15800
C239        C  0.42770190  0.66636816  0.13107895    -0.10600
C240        C  0.41317470  0.64256249  0.11579904     0.08800
C241        C  0.44626620  0.60446606  0.13740710     0.09800
S242        S  0.48091813  0.65519685  0.17546375    -0.24900
H243        H  0.45953149  0.68767672  0.16064239     0.20000
S244        S  0.38793158  0.63715990  0.09055514    -0.30600
H245        H  0.40821901  0.60433002  0.10706074     0.10400
C246        C  0.43222268  0.58212740  0.15458518     0.03600
C247        C  0.43794382  0.56161349  0.15302369    -0.12900
C248        C  0.45708962  0.56285580  0.13420742    -0.08600
C249        C  0.47168893  0.58571465  0.11766170     0.07000
C250        C  0.46598935  0.60618784  0.11931603    -0.13700
S251        S  0.40683642  0.57969010  0.17815225    -0.30600
H252        H  0.42684421  0.54413021  0.16577781     0.11300
S253        S  0.49808425  0.59018554  0.09454251    -0.27700
H254        H  0.47686186  0.62353446  0.10627229     0.08500
H255        H  0.40090010  0.66320645  0.08036113     0.26900
H256        H  0.39847263  0.55396135  0.18770599     0.21700
H257        H  0.50673727  0.57636170  0.11158778     0.27000
H258        H  0.47116905  0.62874109  0.18308983     0.15900
C259        C  0.75265340  0.46275646  0.35879516    -0.11400
C260        C  0.73334343  0.46317765  0.37593822     0.15100
C261        C  0.71766297  0.44140910  0.39345857     0.02000
C262        C  0.72163156  0.41975633  0.39344759    -0.15800
C263        C  0.74130323  0.41947414  0.37671039    -0.10600
C264        C  0.75670819  0.44116388  0.35883129     0.08800
C265        C  0.72969422  0.48636874  0.37460544     0.09800
S266        S  0.69263581  0.44023303  0.41664289    -0.24900
H267        H  0.70970689  0.40327039  0.40723666     0.20000
S268        S  0.78087812  0.44206960  0.33455148    -0.30600
H269        H  0.76439292  0.47926534  0.34495362     0.10400
C270        C  0.74892696  0.51101381  0.38534854     0.03600
C271        C  0.74465407  0.53246520  0.38390965    -0.12900
C272        C  0.72162318  0.52994842  0.37169953    -0.08600
C273        C  0.70269641  0.50527828  0.36020906     0.07000
C274        C  0.70679455  0.48373831  0.36214480    -0.13700
S275        S  0.77851054  0.51495949  0.40182946    -0.30600
H276        H  0.75916991  0.55123301  0.39282668     0.11300
S277        S  0.67366826  0.50019195  0.34161899    -0.27700
H278        H  0.69225508  0.46485491  0.35341473     0.08500
H279        H  0.76605486  0.41521589  0.32715631     0.26900
H280        H  0.79085157  0.54238417  0.40612925     0.21700
H281        H  0.68656433  0.52452280  0.32741811     0.27000
H282        H  0.70505124  0.46751328  0.42182039     0.15900
C283        C  0.52343823  0.85770769  0.10538886    -0.11400
C284        C  0.51944017  0.84154349  0.12872720     0.15100
C285        C  0.53635597  0.85180841  0.15223282     0.02000
C286        C  0.55688135  0.87801945  0.15189332    -0.15800
C287        C  0.56141170  0.89424416  0.12828432    -0.10600
C288        C  0.54393992  0.88393701  0.10501629     0.08800
C289        C  0.49737481  0.81409849  0.12795679     0.09800
S290        S  0.53314651  0.83236959  0.18302737    -0.24900
H291        H  0.57005433  0.88544466  0.16986574     0.20000
S292        S  0.54584764  0.90334649  0.07479538    -0.30600
H293        H  0.51018890  0.84990739  0.08749572     0.10400
C294        C  0.47393654  0.80629195  0.14311880     0.03600
C295        C  0.45392042  0.77978008  0.14250043    -0.12900
C296        C  0.45682136  0.76096606  0.12683690    -0.08600
C297        C  0.47997899  0.76921183  0.11068121     0.07000
C298        C  0.50006636  0.79558721  0.11168391    -0.13700
S299        S  0.46950797  0.83012367  0.16308088    -0.30600
H300        H  0.43610345  0.77358243  0.15464011     0.11300
S301        S  0.48471463  0.74750814  0.08741698    -0.27700
H302        H  0.51792927  0.80181192  0.09956893     0.08500
H303        H  0.55164023  0.92576446  0.09100482     0.26900
H304        H  0.44375730  0.81260236  0.17250670     0.21700
H305        H  0.45833394  0.73351279  0.07822789     0.27000
H306        H  0.52290700  0.80800555  0.16902764     0.15900
C307        C  0.68119910  0.27758200  0.39772084    -0.11400
C308        C  0.65929519  0.27281813  0.38141075     0.15100
C309        C  0.65964433  0.29376953  0.36642152     0.02000
C310        C  0.68206227  0.31884914  0.36763155    -0.15800
C311        C  0.70421132  0.32374353  0.38373417    -0.10600
C312        C  0.70349515  0.30279964  0.39931718     0.08800
C313        C  0.63644126  0.24577591  0.38037695     0.09800
S314        S  0.63263056  0.28973811  0.34457102    -0.24900
H315        H  0.68231831  0.33463413  0.35548958     0.20000
S316        S  0.72973608  0.30702238  0.42246556    -0.30600
H317        H  0.68078728  0.26154536  0.40951507     0.10400
C318        C  0.63370314  0.22803106  0.35877910     0.03600
C319        C  0.61140736  0.20266300  0.35838753    -0.12900
C320        C  0.59176372  0.19474792  0.37917910    -0.08600
C321        C  0.59441125  0.21296621  0.40044727     0.07000
C322        C  0.61692239  0.23801417  0.40110929    -0.13700
S323        S  0.65879473  0.23767053  0.33198169    -0.30600
H324        H  0.60946421  0.18878108  0.34212193     0.11300
S325        S  0.56923480  0.20612021  0.42640138    -0.27700
H326        H  0.61889984  0.25190046  0.41742164     0.08500
H327        H  0.73543256  0.33201376  0.43235624     0.26900
H328        H  0.64622976  0.21402831  0.31641279     0.21700
H329        H  0.54793427  0.19185458  0.40788203     0.27000
H330        H  0.61229307  0.26861215  0.35937026     0.15900
C331        C  0.57156437  0.06831137  0.49769748    -0.11400
C332        C  0.57688719  0.04849437  0.48923738     0.15100
C333        C  0.56920036  0.03735855  0.46205508     0.02000
C334        C  0.55641365  0.04625194  0.44403076    -0.15800
C335        C  0.55162948  0.06661901  0.45211927    -0.10600
C336        C  0.55936831  0.07768208  0.47947569     0.08800
C337        C  0.59013741  0.03958855  0.01071780     0.09800
S338        S  0.57545614  0.01203821  0.44894182    -0.24900
H339        H  0.55079082  0.03760255  0.42317329     0.20000
S340        S  0.55305054  0.10274363  0.49305940    -0.30600
H341        H  0.57688121  0.07647747  0.51879171     0.10400
C342        C  0.61562111  0.05591311  0.02178403     0.03600
C343        C  0.62546337  0.04585895  0.04231889    -0.12900
C344        C  0.61038020  0.01974550  0.05189844    -0.08600
C345        C  0.58469321  0.00363568  0.04090406     0.07000
C346        C  0.57503600  0.01361257  0.02029971    -0.13700
S347        S  0.63495529  0.08820849  0.50710957    -0.30600
H348        H  0.64511905  0.05825187  0.05068760     0.11300
S349        S  0.56252663  0.97080435  0.05341845    -0.27700
H350        H  0.55525064  0.00123997  0.01216686     0.08500
H351        H  0.57289128  0.12254572  0.47628204     0.26900
H352        H  0.65727225  0.09483485  0.52380836     0.21700
H353        H  0.56989409  0.97674168  0.08190312     0.27000
H354        H  0.59883853  0.02019961  0.46426940     0.15900
C355        C  0.58810181  0.07817934  0.26862530    -0.11400
C356        C  0.57604108  0.05128233  0.26196351     0.15100
C357        C  0.55280813  0.03324024  0.27629357     0.02000
C358        C  0.54228126  0.04240469  0.29700474    -0.15800
C359        C  0.55412859  0.06939252  0.30364131    -0.10600
C360        C  0.57765682  0.08741158  0.28937722     0.08800
C361        C  0.58901038  0.04240787  0.24130059     0.09800
S362        S  0.53545074  0.99831939  0.26884209    -0.24900
H363        H  0.52425688  0.02830942  0.30754401     0.20000
S364        S  0.59625564  0.12215167  0.29752863    -0.30600
H365        H  0.60624471  0.09201523  0.25807028     0.10400
C366        C  0.59003196  0.04824580  0.21236192     0.03600
C367        C  0.60203178  0.03888900  0.19356728    -0.12900
C368        C  0.61254993  0.02332172  0.20301858    -0.08600
C369        C  0.61186221  0.01784333  0.23213219     0.07000
C370        C  0.60020033  0.02755912  0.25092390    -0.13700
S371        S  0.57498784  0.06654737  0.19917947    -0.30600
H372        H  0.60253578  0.04304527  0.17126840     0.11300
S373        S  0.62660911  0.99937587  0.24575079    -0.27700
H374        H  0.59957171  0.02347950  0.27325528     0.08500
H375        H  0.59354894  0.11847833  0.32692093     0.26900
H376        H  0.57828123  0.06330367  0.17033245     0.21700
H377        H  0.62098136  0.00056183  0.27438644     0.27000
H378        H  0.54224391  0.00057490  0.24012772     0.15900
C379        C  0.31511054  0.66739640  0.13698538    -0.11400
C380        C  0.31011816  0.68629151  0.12503864     0.15100
C381        C  0.33124378  0.71015919  0.11497784     0.02000
C382        C  0.35694008  0.71467610  0.11716976    -0.15800
C383        C  0.36224634  0.69584562  0.12915121    -0.10600
C384        C  0.34085653  0.67197821  0.13954256     0.08800
C385        C  0.28288656  0.68137785  0.12511218     0.09800
S386        S  0.32674502  0.73569654  0.09929521    -0.24900
H387        H  0.37288917  0.73301496  0.10898012     0.20000
S388        S  0.34479515  0.64723161  0.15786242    -0.30600
H389        H  0.29883720  0.64928071  0.14521673     0.10400
C390        C  0.26423956  0.66455569  0.10515962     0.03600
C391        C  0.23889103  0.66140050  0.10534917    -0.12900
C392        C  0.23187146  0.67470664  0.12518740    -0.08600
C393        C  0.25079732  0.69161152  0.14516474     0.07000
C394        C  0.27593948  0.69448387  0.14507821    -0.13700
S395        S  0.27301746  0.64776430  0.07903056    -0.30600
H396        H  0.22444784  0.64848493  0.09003912     0.11300
S397        S  0.24479966  0.71126665  0.17021810    -0.27700
H398        H  0.29049157  0.70760599  0.16022159     0.08500
H399        H  0.36606135  0.66562413  0.17439966     0.26900
H400        H  0.24828218  0.63438094  0.06563750     0.21700
H401        H  0.23114707  0.71843455  0.15104992     0.27000
H402        H  0.30168742  0.71884036  0.08777735     0.15900
C403        C  0.83313732  0.37055314  0.36555105    -0.11400
C404        C  0.85298410  0.39219059  0.38028988     0.15100
C405        C  0.84666624  0.40947117  0.39461938     0.02000
C406        C  0.82078884  0.40480776  0.39378903    -0.15800
C407        C  0.80077810  0.38296164  0.37933996    -0.10600
C408        C  0.80725046  0.36584923  0.36472463     0.08800
C409        C  0.88022187  0.39670596  0.37923954     0.09800
S410        S  0.87056319  0.43755342  0.41463807    -0.24900
H411        H  0.81612519  0.41808592  0.40507579     0.20000
S412        S  0.78396614  0.33865966  0.34327041    -0.30600
H413        H  0.83803702  0.35754869  0.35404492     0.10400
C414        C  0.88677762  0.37909916  0.39212164     0.03600
C415        C  0.91247643  0.38337917  0.38948490    -0.12900
C416        C  0.93197060  0.40507236  0.37441629    -0.08600
C417        C  0.92526605  0.42276881  0.36161751     0.07000
C418        C  0.89958506  0.41846514  0.36432618    -0.13700
S419        S  0.86263500  0.35166032  0.41272628    -0.30600
H420        H  0.91753673  0.36994689  0.39960733     0.11300
S421        S  0.94799127  0.45039621  0.34043062    -0.27700
H422        H  0.89444880  0.43185703  0.35418135     0.08500
H423        H  0.77173862  0.35217580  0.33227210     0.26900
H424        H  0.87915307  0.34176634  0.42076318     0.21700
H425        H  0.95887145  0.43663593  0.32682598     0.27000
H426        H  0.88625106  0.42665466  0.42244824     0.15900
C427        C  0.11272780  0.56062870  0.01717093    -0.11400
C428        C  0.08557157  0.54552563  0.01223227     0.15100
C429        C  0.06814128  0.55088768  0.02759646     0.02000
C430        C  0.07834417  0.57205380  0.04655386    -0.15800
C431        C  0.10565827  0.58775373  0.05120214    -0.10600
C432        C  0.12295254  0.58129586  0.03675383     0.08800
C433        C  0.07417621  0.52537123  0.49156299     0.09800
S434        S  0.03111775  0.53402943  0.52337673    -0.24900
H435        H  0.06472927  0.57638815  0.05758670     0.20000
S436        S  0.15804434  0.59773069  0.04283720    -0.30600
H437        H  0.12606726  0.55615229  0.00573427     0.10400
C438        C  0.06798474  0.52991706  0.46426028     0.03600
C439        C  0.05933586  0.50982617  0.44400082    -0.12900
C440        C  0.05700750  0.48528331  0.45037450    -0.08600
C441        C  0.06325860  0.48091938  0.47799201     0.07000
C442        C  0.07178406  0.50098937  0.49817528    -0.13700
S443        S  0.07153167  0.56147749  0.45513240    -0.30600
H444        H  0.05467681  0.51340188  0.42296827     0.11300
S445        S  0.05937921  0.44984782  0.48933900    -0.27700
H446        H  0.08153377  0.49822774  0.01723279     0.08500
H447        H  0.15575674  0.59781114  0.07238556     0.26900
H448        H  0.06548258  0.55609248  0.42631899     0.21700
H449        H  0.08128165  0.45329505  0.47359756     0.27000
H450        H  0.02904982  0.50998080  0.51520352     0.15900
C451        C  0.11243200  0.56664781  0.23078662    -0.11400
C452        C  0.08567937  0.55328149  0.23805451     0.15100
C453        C  0.06843588  0.56048944  0.22533401     0.02000
C454        C  0.07836894  0.58091294  0.20555604    -0.15800
C455        C  0.10514384  0.59413420  0.19788659    -0.10600
C456        C  0.12228413  0.58662817  0.21059555     0.08800
C457        C  0.07651584  0.53181347  0.25886356     0.09800
S458        S  0.03369074  0.54450268  0.23340415    -0.24900
H459        H  0.06504630  0.58648869  0.19604102     0.20000
S460        S  0.15652972  0.60057447  0.20104802    -0.30600
H461        H  0.12561705  0.56096799  0.24046375     0.10400
C462        C  0.07358297  0.50717487  0.25152447     0.03600
C463        C  0.06532310  0.48741834  0.27202720    -0.12900
C464        C  0.06010338  0.49184905  0.29985512    -0.08600
C465        C  0.06391579  0.51703033  0.30721996     0.07000
C466        C  0.07164780  0.53650763  0.28655263    -0.13700
S467        S  0.07959527  0.50068520  0.21580265    -0.30600
H468        H  0.06240299  0.46824686  0.26618627     0.11300
S469        S  0.06062315  0.52618902  0.34269676    -0.27700
H470        H  0.07450097  0.55571977  0.29221343     0.08500
H471        H  0.15204603  0.60041610  0.17187613     0.26900
H472        H  0.07535567  0.47515498  0.22063621     0.21700
H473        H  0.07285094  0.51333975  0.35536153     0.27000
H474        H  0.03045596  0.51968419  0.24008249     0.15900
C475        C  0.15694446  0.42576900  0.38988309    -0.11400
C476        C  0.15965255  0.40971707  0.36974751     0.15100
C477        C  0.13946806  0.39616360  0.34967123     0.02000
C478        C  0.11743236  0.39955666  0.34968037    -0.15800
C479        C  0.11457106  0.41555124  0.36989783    -0.10600
C480        C  0.13480166  0.42897658  0.39010234     0.08800
C481        C  0.18405660  0.40807154  0.36988850     0.09800
S482        S  0.14042205  0.37395991  0.32383243    -0.24900
H483        H  0.10194555  0.38888668  0.33432401     0.20000
S484        S  0.13418027  0.45130436  0.41596562    -0.30600
H485        H  0.17249552  0.43630909  0.40521247     0.10400
C486        C  0.20402818  0.42133989  0.34964310     0.03600
C487        C  0.22687348  0.41927853  0.35069972    -0.12900
C488        C  0.23026630  0.40439179  0.37176044    -0.08600
C489        C  0.20993342  0.39076312  0.39173186     0.07000
C490        C  0.18728203  0.39306001  0.39080060    -0.13700
S491        S  0.20085496  0.44171337  0.32316848    -0.30600
H492        H  0.24252861  0.42996648  0.33558630     0.11300
S493        S  0.21114174  0.36932908  0.41819298    -0.27700
H494        H  0.17178594  0.38267133  0.40619548     0.08500
H495        H  0.12255686  0.46169438  0.39796973     0.26900
H496        H  0.22503914  0.44965987  0.30955006     0.21700
H497        H  0.22470706  0.36021718  0.40126249     0.27000
H498        H  0.15566691  0.36630504  0.33980288     0.15900
C499        C  0.35100564  0.41475019  0.02110444    -0.11400
C500        C  0.35540137  0.43633289  0.50121159     0.15100
C501        C  0.37647776  0.45948669  0.00347358     0.02000
C502        C  0.39300388  0.46608427  0.02693019    -0.15800
C503        C  0.38958202  0.44714879  0.04732537    -0.10600
C504        C  0.36809317  0.42101798  0.04410536     0.08800
C505        C  0.33779562  0.42799589  0.47646367     0.09800
S506        S  0.38394922  0.48492856  0.97773009    -0.24900
H507        H  0.40913387  0.48620613  0.02876150     0.20000
S508        S  0.36182993  0.39429093  0.06742646    -0.30600
H509        H  0.33454421  0.39782235  0.51998691     0.10400
C510        C  0.34035379  0.41303434  0.45471329     0.03600
C511        C  0.32462506  0.40712814  0.43056533    -0.12900
C512        C  0.30628961  0.41584211  0.42762739    -0.08600
C513        C  0.30337201  0.43027499  0.45004552     0.07000
C514        C  0.31921838  0.43626080  0.47406115    -0.13700
S515        S  0.36462205  0.40263786  0.45710685    -0.30600
H516        H  0.32692367  0.39597638  0.41368429     0.11300
S517        S  0.28143937  0.44343416  0.44859439    -0.27700
H518        H  0.31796033  0.44608838  0.98997758     0.08500
H519        H  0.38734844  0.39804933  0.06394710     0.26900
H520        H  0.35885759  0.38927105  0.43109926     0.21700
H521        H  0.25879935  0.41826317  0.45018353     0.27000
H522        H  0.37552098  0.47078152  0.45434210     0.15900
C523        C  0.35724441  0.40841324  0.23439937    -0.11400
C524        C  0.35834330  0.42756088  0.25303419     0.15100
C525        C  0.37820098  0.45414046  0.24967118     0.02000
C526        C  0.39567086  0.46116059  0.22704088    -0.15800
C527        C  0.39454928  0.44215387  0.20801774    -0.10600
C528        C  0.37534680  0.41530205  0.21225219     0.08800
C529        C  0.33905432  0.41928909  0.27628893     0.09800
S530        S  0.38241480  0.48005895  0.27353478    -0.24900
H531        H  0.41031681  0.48178609  0.22431773     0.20000
S532        S  0.37356446  0.38876618  0.19121155    -0.30600
H533        H  0.34240199  0.38789371  0.23741942     0.10400
C534        C  0.31913716  0.42607032  0.27671475     0.03600
C535        C  0.30338449  0.42061552  0.30080142    -0.12900
C536        C  0.30711082  0.40844572  0.32449190    -0.08600
C537        C  0.32592578  0.39999046  0.32312694     0.07000
C538        C  0.34172553  0.40561428  0.29903026    -0.13700
S539        S  0.31416833  0.44215071  0.24680806    -0.30600
H540        H  0.28884718  0.42687360  0.30159228     0.11300
S541        S  0.32959952  0.38140419  0.35139630    -0.27700
H542        H  0.35671929  0.39996058  0.29806917     0.08500
H543        H  0.40106674  0.39937152  0.19003104     0.26900
H544        H  0.29198999  0.44263042  0.25750523     0.21700
H545        H  0.35146459  0.38060699  0.34023859     0.27000
H546        H  0.37361341  0.46433605  0.29787628     0.15900
C547        C  0.98201351  0.69280712  0.14178385    -0.11400
C548        C  0.98447679  0.67774862  0.12028383     0.15100
C549        C  0.96488158  0.66646331  0.09925999     0.02000
C550        C  0.94335338  0.67063171  0.10012659    -0.15800
C551        C  0.94062802  0.68561260  0.12176728    -0.10600
C552        C  0.96062786  0.69719306  0.14254901     0.08800
C553        C  0.00833920  0.67523587  0.11977116     0.09800
S554        S  0.96621663  0.64666220  0.07076135    -0.24900
H555        H  0.92827348  0.66151620  0.08404101     0.20000
S556        S  0.96117387  0.71914338  0.16950202    -0.30600
H557        H  0.99733749  0.70188255  0.15764304     0.10400
C558        C  0.02981656  0.69119002  0.10210850     0.03600
C559        C  0.05228639  0.68849439  0.10266700    -0.12900
C560        C  0.05373666  0.67018815  0.12059365    -0.08600
C561        C  0.03229815  0.65460426  0.13871019     0.07000
C562        C  0.00978669  0.65715437  0.13791244    -0.13700
S563        S  0.02875871  0.71528425  0.07925462    -0.30600
H564        H  0.06878959  0.70060795  0.08898603     0.11300
S565        S  0.03294559  0.63224286  0.16434968    -0.27700
H566        H  0.99339819  0.64525341  0.15184662     0.08500
H567        H  0.95186714  0.73186872  0.15164192     0.26900
H568        H  0.05373441  0.72462339  0.06692112     0.21700
H569        H  0.05964030  0.64855618  0.17161870     0.27000
H570        H  0.98064957  0.63707617  0.08516761     0.15900
C571        C  0.80513914  0.68029260  0.25242311    -0.11400
C572        C  0.82034096  0.66813440  0.24875453     0.15100
C573        C  0.81810604  0.64896713  0.26820229     0.02000
C574        C  0.80005418  0.64173123  0.29033299    -0.15800
C575        C  0.78408566  0.65322520  0.29372732    -0.10600
C576        C  0.78729836  0.67333147  0.27480704     0.08800
C577        C  0.83609619  0.67372394  0.22282040     0.09800
S578        S  0.83631680  0.63168432  0.26497403    -0.24900
H579        H  0.79793096  0.62631531  0.30453328     0.20000
S580        S  0.76967013  0.69113515  0.27802517    -0.30600
H581        H  0.80692327  0.69505090  0.23744052     0.10400
C582        C  0.82486425  0.65860610  0.19835412     0.03600
C583        C  0.84031883  0.66399295  0.17414047    -0.12900
C584        C  0.86682262  0.68424552  0.17381281    -0.08600
C585        C  0.87781892  0.69990696  0.19818258     0.07000
C586        C  0.86236457  0.69435213  0.22252616    -0.13700
S587        S  0.79083464  0.63236964  0.19803870    -0.30600
H588        H  0.83181417  0.65209709  0.15540259     0.11300
S589        S  0.91071673  0.72789707  0.19923117    -0.27700
H590        H  0.87076055  0.70622872  0.24131472     0.08500
H591        H  0.77219140  0.69360296  0.30754900     0.26900
H592        H  0.79037487  0.62424958  0.16999581     0.21700
H593        H  0.91144829  0.73470956  0.17070137     0.27000
H594        H  0.85802737  0.65134006  0.25021231     0.15900
C595        C  0.81688198  0.64690837  0.47847120    -0.11400
C596        C  0.81760987  0.66630667  0.99765416     0.15100
C597        C  0.80232376  0.67778975  0.49144398     0.02000
C598        C  0.78479084  0.66873457  0.46875871    -0.15800
C599        C  0.78279691  0.64861510  0.45090343    -0.10600
C600        C  0.79923090  0.63767496  0.45586555     0.08800
C601        C  0.83378054  0.67208518  0.02329128     0.09800
S602        S  0.80312440  0.70349633  0.51327325    -0.24900
H603        H  0.77257215  0.67750925  0.46505766     0.20000
S604        S  0.79734345  0.61055669  0.43579349    -0.30600
H605        H  0.82861224  0.63832923  0.98298071     0.10400
C606        C  0.82189456  0.66249775  0.04969511     0.03600
C607        C  0.83783133  0.66795793  0.07350608    -0.12900
C608        C  0.86551416  0.68282396  0.07162006    -0.08600
C609        C  0.87732063  0.69257734  0.04501208     0.07000
C610        C  0.86132435  0.68673872  0.02110230    -0.13700
S611        S  0.78645888  0.64234851  0.05297395    -0.30600
H612        H  0.82859713  0.65998411  0.09365201     0.11300
S613        S  0.91235720  0.71342682  0.04020371    -0.27700
H614        H  0.87075522  0.69388206  0.50081693     0.08500
H615        H  0.76959700  0.59577720  0.43606259     0.26900
H616        H  0.78556404  0.64136267  0.08261501     0.21700
H617        H  0.91617698  0.72780470  0.06528586     0.27000
H618        H  0.82849529  0.71353349  0.02432839     0.15900
C619        C  0.73934777  0.79941504  0.39435350    -0.11400
C620        C  0.72183107  0.77959268  0.37596025     0.15100
C621        C  0.70610433  0.78480442  0.35754217     0.02000
C622        C  0.70830795  0.80967985  0.35775304    -0.15800
C623        C  0.72545938  0.82951933  0.37646003    -0.10600
C624        C  0.74156980  0.82438799  0.39459432     0.08800
C625        C  0.72048062  0.75371929  0.37601687     0.09800
S626        S  0.68259357  0.76044376  0.33351932    -0.24900
H627        H  0.69572601  0.81320680  0.34384044     0.20000
S628        S  0.76609532  0.84903873  0.41754771    -0.30600
H629        H  0.75169266  0.79552414  0.40824554     0.10400
C630        C  0.73191879  0.74638857  0.35424438     0.03600
C631        C  0.72824429  0.72081783  0.35385030    -0.12900
C632        C  0.71335340  0.70238456  0.37483475    -0.08600
C633        C  0.70179170  0.70988477  0.39655976     0.07000
C634        C  0.70588907  0.73556294  0.39716876    -0.13700
S635        S  0.75144553  0.76973931  0.32718958    -0.30600
H636        H  0.73738397  0.71528410  0.33737644     0.11300
S637        S  0.68030506  0.68730853  0.42306406    -0.27700
H638        H  0.69672412  0.74113655  0.41361026     0.08500
H639        H  0.77315130  0.87017679  0.39887171     0.26900
H640        H  0.75737845  0.75276849  0.31182484     0.21700
H641        H  0.66798997  0.66550795  0.40470926     0.27000
H642        H  0.67572568  0.73842548  0.35071292     0.15900
C643        C  0.67488613  0.91463119  0.01309676    -0.11400
C644        C  0.70198399  0.92680020  0.00752882     0.15100
C645        C  0.71980419  0.94787611  0.02484370     0.02000
C646        C  0.71005673  0.95697932  0.04650727    -0.15800
C647        C  0.68281794  0.94517879  0.05171110    -0.10600
C648        C  0.66517599  0.92307900  0.03528012     0.08800
C649        C  0.71103705  0.91710544  0.48223292     0.09800
S650        S  0.75507796  0.96399831  0.02028068    -0.24900
H651        H  0.72387345  0.97366745  0.05913070     0.20000
S652        S  0.63019731  0.90407779  0.04200004    -0.30600
H653        H  0.66143137  0.89794042  0.49885781     0.10400
C654        C  0.70704008  0.89134275  0.48030879     0.03600
C655        C  0.71257326  0.88278148  0.45489578    -0.12900
C656        C  0.72214075  0.89950324  0.43129903    -0.08600
C657        C  0.72786863  0.92598077  0.43413150     0.07000
C658        C  0.72182790  0.93426558  0.45930888    -0.13700
S659        S  0.69494865  0.87039630  0.01076056    -0.30600
H660        H  0.70833884  0.86259642  0.45309863     0.11300
S661        S  0.74317564  0.95039948  0.40680176    -0.27700
H662        H  0.72526238  0.95421694  0.46095694     0.08500
H663        H  0.63280617  0.90530122  0.07155213     0.26900
H664        H  0.69560878  0.84804030  0.49749379     0.21700
H665        H  0.75970168  0.94091805  0.39733074     0.27000
H666        H  0.75564252  0.94040082  0.50962017     0.15900
C667        C  0.69107217  0.91776490  0.30366933    -0.11400
C668        C  0.70075096  0.91443199  0.27790796     0.15100
C669        C  0.71553037  0.90141924  0.27726788     0.02000
C670        C  0.72052245  0.89230918  0.30251186    -0.15800
C671        C  0.71049114  0.89526822  0.32840771    -0.10600
C672        C  0.69509581  0.90778806  0.32867615     0.08800
C673        C  0.69412744  0.92417177  0.25226289     0.09800
S674        S  0.72827063  0.89556762  0.24507056    -0.24900
H675        H  0.73224601  0.88270292  0.30186018     0.20000
S676        S  0.67830307  0.91012238  0.35950391    -0.30600
H677        H  0.67938639  0.92743269  0.30408903     0.10400
C678        C  0.66796421  0.91194366  0.24238041     0.03600
C679        C  0.66154379  0.92344347  0.22022427    -0.12900
C680        C  0.68075426  0.94696718  0.20758563    -0.08600
C681        C  0.70716763  0.95888871  0.21720120     0.07000
C682        C  0.71357445  0.94723597  0.23927484    -0.13700
S683        S  0.64278652  0.88144203  0.25779835    -0.30600
H684        H  0.64142793  0.91396388  0.21257829     0.11300
S685        S  0.73321286  0.98971216  0.20359265    -0.27700
H686        H  0.73363143  0.95676916  0.24716305     0.08500
H687        H  0.66965262  0.88412589  0.36837014     0.26900
H688        H  0.62122559  0.88040780  0.24355597     0.21700
H689        H  0.71760536  0.00173205  0.20189996     0.27000
H690        H  0.70864940  0.89438190  0.22708002     0.15900
C691        C  0.83459867  0.14478299  0.13538734    -0.11400
C692        C  0.81300531  0.14289161  0.12059090     0.15100
C693        C  0.81589858  0.16488644  0.10537603     0.02000
C694        C  0.84021779  0.18830602  0.10555479    -0.15800
C695        C  0.86181274  0.19016480  0.12035921    -0.10600
C696        C  0.85904471  0.16799194  0.13505092     0.08800
C697        C  0.78754958  0.11800759  0.12233335     0.09800
S698        S  0.78942595  0.16432062  0.08537851    -0.24900
H699        H  0.84232033  0.20524734  0.09408193     0.20000
S700        S  0.88603428  0.16756684  0.15276048    -0.30600
H701        H  0.83242552  0.12789551  0.14702503     0.10400
C702        C  0.78402092  0.09454346  0.10997868     0.03600
C703        C  0.75964728  0.07127863  0.11271659    -0.12900
C704        C  0.73864932  0.07102846  0.12740441    -0.08600
C705        C  0.74257835  0.09458552  0.14027856     0.07000
C706        C  0.76683474  0.11778132  0.13734576    -0.13700
S707        S  0.81019367  0.09446409  0.08979768    -0.30600
H708        H  0.75671059  0.05333537  0.10276872     0.11300
S709        S  0.71803321  0.09625520  0.16177984    -0.27700
H710        H  0.76979007  0.13576312  0.14728039     0.08500
H711        H  0.90582524  0.18507785  0.13425731     0.26900
H712        H  0.79614400  0.06775255  0.08173638     0.21700
H713        H  0.70910373  0.07155770  0.17458689     0.27000
H714        H  0.77692878  0.13742146  0.07818100     0.15900
C715        C  0.99495007  0.32668153  0.24698356    -0.11400
C716        C  0.96754059  0.31366714  0.24326885     0.15100
C717        C  0.95161525  0.31684599  0.26336535     0.02000
C718        C  0.96350444  0.33387885  0.28609794    -0.15800
C719        C  0.99103566  0.34756853  0.28965019    -0.10600
C720        C  0.00686460  0.34328974  0.27016842     0.08800
C721        C  0.95615774  0.29801376  0.21749614     0.09800
S722        S  0.91615194  0.30065882  0.26058114    -0.24900
H723        H  0.95106786  0.33684813  0.30086025     0.20000
S724        S  0.04204669  0.35765607  0.27401943    -0.30600
H725        H  0.00711096  0.32390037  0.23166391     0.10400
C726        C  0.95051393  0.30893575  0.19398206     0.03600
C727        C  0.93928792  0.29332341  0.16999667    -0.12900
C728        C  0.93305629  0.26684664  0.16936272    -0.08600
C729        C  0.93857442  0.25589124  0.19306956     0.07000
C730        C  0.95037181  0.27173795  0.21685089    -0.13700
S731        S  0.95762151  0.34273690  0.19459129    -0.30600
H732        H  0.93502140  0.30163401  0.15174415     0.11300
S733        S  0.93183536  0.22226891  0.19278285    -0.27700
H734        H  0.95490622  0.26369563  0.23514246     0.08500
H735        H  0.04134047  0.35493569  0.30353526     0.26900
H736        H  0.94596527  0.34211137  0.16846532     0.21700
H737        H  0.93935663  0.22168855  0.22081390     0.27000
H738        H  0.91260763  0.27792352  0.24661438     0.15900
C739        C  0.97140712  0.28671548  0.03713979    -0.11400
C740        C  0.95585559  0.29044135  0.01730236     0.15100
C741        C  0.92835390  0.27842081  0.02149287     0.02000
C742        C  0.91719166  0.26373799  0.04595313    -0.15800
C743        C  0.93300944  0.26140130  0.06662481    -0.10600
C744        C  0.96029461  0.27228717  0.06169744     0.08800
C745        C  0.96917523  0.30835977  0.99350646     0.09800
S746        S  0.90661766  0.28198260  0.99721449    -0.24900
H747        H  0.89621474  0.25530208  0.04959236     0.20000
S748        S  0.98190827  0.26831798  0.08573876    -0.30600
H749        H  0.99246262  0.29560008  0.03368850     0.10400
C750        C  0.98459358  0.33574766  0.99804573     0.03600
C751        C  0.99646618  0.35280444  0.47579721    -0.12900
C752        C  0.99291928  0.34329276  0.44802662    -0.08600
C753        C  0.97838991  0.31577899  0.44302592     0.07000
C754        C  0.96685854  0.29857057  0.46576320    -0.13700
S755        S  0.98817977  0.34963402  0.03296920    -0.30600
H756        H  0.00731402  0.37387894  0.47959100     0.11300
S757        S  0.97426414  0.30142050  0.40839649    -0.27700
H758        H  0.95544266  0.27750019  0.46198094     0.08500
H759        H  0.96276048  0.24323774  0.09542716     0.26900
H760        H  0.00208513  0.37632562  0.02495190     0.21700
H761        H  0.99917945  0.32061792  0.39834012     0.27000
H762        H  0.92489779  0.30745708  0.98780800     0.15900
C763        C  0.32504922  0.93904686  0.39057769    -0.11400
C764        C  0.34538174  0.94104021  0.37319623     0.15100
C765        C  0.34043723  0.91979301  0.35523306     0.02000
C766        C  0.31553210  0.89699842  0.35534435    -0.15800
C767        C  0.29507815  0.89495116  0.37264800    -0.10600
C768        C  0.29991665  0.91650272  0.39016131     0.08800
C769        C  0.37145147  0.96554901  0.37424062     0.09800
S770        S  0.36498341  0.92061100  0.33158514    -0.24900
H771        H  0.31207004  0.88069132  0.34169633     0.20000
S772        S  0.27466151  0.91723625  0.41117505    -0.30600
H773        H  0.32866994  0.95545907  0.40414161     0.10400
C774        C  0.37531087  0.98912668  0.36203197     0.03600
C775        C  0.40013651  0.01203759  0.36389594    -0.12900
C776        C  0.42136352  0.01199873  0.37773739    -0.08600
C777        C  0.41726550  0.98826066  0.39018272     0.07000
C778        C  0.39252438  0.96531177  0.38797980    -0.13700
S779        S  0.34876880  0.98984465  0.34341200    -0.30600
H780        H  0.40312758  0.03005108  0.35419538     0.11300
S781        S  0.44217546  0.98617597  0.41045189    -0.27700
H782        H  0.38946564  0.94722804  0.39762003     0.08500
H783        H  0.25401428  0.90264105  0.39206204     0.26900
H784        H  0.36325538  0.01628054  0.33460000     0.21700
H785        H  0.45171203  0.01085668  0.42365974     0.27000
H786        H  0.37775599  0.94785052  0.32621047     0.15900
C787        C  0.21050458  0.80984211  0.46883021    -0.11400
C788        C  0.20080876  0.78267846  0.46580562     0.15100
C789        C  0.20059565  0.77231242  0.43885080     0.02000
C790        C  0.21127921  0.78940657  0.41595147    -0.15800
C791        C  0.22164016  0.81677341  0.41889525    -0.10600
C792        C  0.22055644  0.82690923  0.44567708     0.08800
C793        C  0.19157756  0.76572561  0.49116174     0.09800
S794        S  0.18729924  0.73753820  0.43224621    -0.24900
H795        H  0.21173359  0.78115587  0.39561270     0.20000
S796        S  0.23048868  0.86099190  0.45158767    -0.30600
H797        H  0.21265280  0.81749920  0.98900087     0.10400
C798        C  0.20928192  0.75480674  0.00268553     0.03600
C799        C  0.19887450  0.73769622  0.02571622    -0.12900
C800        C  0.17446776  0.73160519  0.03754461    -0.08600
C801        C  0.16012862  0.74283180  0.02583807     0.07000
C802        C  0.17055965  0.75992098  0.00281977    -0.13700
S803        S  0.24130848  0.76319145  0.98883351    -0.30600
H804        H  0.20993548  0.72924438  0.03481361     0.11300
S805        S  0.12792375  0.73512992  0.03825026    -0.27700
H806        H  0.15675124  0.76912379  0.49523376     0.08500
H807        H  0.22124846  0.86425459  0.42539098     0.26900
H808        H  0.24757376  0.74995380  0.00943293     0.21700
H809        H  0.11912631  0.70838667  0.04374607     0.27000
H810        H  0.16821956  0.72856025  0.45373238     0.15900
C811        C  0.17612194  0.74889937  0.24879087    -0.11400
C812        C  0.19183218  0.77578970  0.24264406     0.15100
C813        C  0.19719589  0.78397137  0.21424715     0.02000
C814        C  0.18727749  0.76500775  0.19268984    -0.15800
C815        C  0.17194851  0.73801552  0.19890760    -0.10600
C816        C  0.16581701  0.73002773  0.22735220     0.08800
C817        C  0.20358776  0.79427154  0.26661053     0.09800
S818        S  0.21680467  0.81814080  0.20425456    -0.24900
H819        H  0.19201020  0.77132237  0.17095681     0.20000
S820        S  0.14450781  0.69618323  0.23777423    -0.30600
H821        H  0.17190803  0.74256187  0.27057418     0.10400
C822        C  0.18777375  0.79884561  0.28562145     0.03600
C823        C  0.19908179  0.81330389  0.31036584    -0.12900
C824        C  0.22587751  0.82322691  0.31646342    -0.08600
C825        C  0.24173694  0.81893377  0.29709952     0.07000
C826        C  0.23051541  0.80486867  0.27223316    -0.13700
S827        S  0.15318452  0.78610260  0.27838009    -0.30600
H828        H  0.18698171  0.81660802  0.32525605     0.11300
S829        S  0.27570838  0.82873142  0.30399706    -0.27700
H830        H  0.24252864  0.80086652  0.25788617     0.08500
H831        H  0.12734801  0.68955892  0.21457893     0.26900
H832        H  0.14725103  0.79476975  0.30358428     0.21700
H833        H  0.27197812  0.82218817  0.33280900     0.27000
H834        H  0.21042599  0.82848844  0.22781804     0.15900
C835        C  0.46467099  0.30384535  0.11263437    -0.11400
C836        C  0.44810135  0.30902211  0.12950548     0.15100
C837        C  0.42939684  0.28897016  0.14713185     0.02000
C838        C  0.42738403  0.26409619  0.14715790    -0.15800
C839        C  0.44379001  0.25879902  0.13006072    -0.10600
C840        C  0.46298750  0.27915564  0.11299291     0.08800
C841        C  0.45045386  0.33534634  0.12773966     0.09800
S842        S  0.40743042  0.29386013  0.16977608    -0.24900
H843        H  0.41269805  0.24865695  0.16039695     0.20000
S844        S  0.48654642  0.27528416  0.09199671    -0.30600
H845        H  0.47920696  0.31928522  0.09927234     0.10400
C846        C  0.47185487  0.35772384  0.14006548     0.03600
C847        C  0.47335211  0.38232455  0.13780310    -0.12900
C848        C  0.45397867  0.38510753  0.12322678    -0.08600
C849        C  0.43302921  0.36265652  0.11005547     0.07000
C850        C  0.43128154  0.33803929  0.11287159    -0.13700
S851        S  0.49680057  0.35476342  0.15942869    -0.30600
H852        H  0.48942476  0.39939101  0.14792886     0.11300
S853        S  0.40874759  0.36420979  0.08810127    -0.27700
H854        H  0.41515030  0.32089191  0.10286069     0.08500
H855        H  0.48935476  0.25848299  0.11106329     0.26900
H856        H  0.51275283  0.38169279  0.16596789     0.21700
H857        H  0.42670963  0.38848369  0.07566827     0.27000
H858        H  0.42499738  0.32067604  0.17539973     0.15900
C859        C  0.46282757  0.13101699  0.24798676    -0.11400
C860        C  0.45376035  0.14868313  0.25344179     0.15100
C861        C  0.45166172  0.15529462  0.28162255     0.02000
C862        C  0.46010076  0.14534368  0.30355661    -0.15800
C863        C  0.47039152  0.12869946  0.29801978    -0.10600
C864        C  0.47093742  0.12077974  0.26994402     0.08800
C865        C  0.44861621  0.16134974  0.22922195     0.09800
S866        S  0.43941153  0.17712390  0.29086087    -0.24900
H867        H  0.45940605  0.15131313  0.32505466     0.20000
S868        S  0.48157062  0.09760808  0.26079333    -0.30600
H869        H  0.46409051  0.12559293  0.22640325     0.10400
C870        C  0.46675159  0.18758876  0.22165531     0.03600
C871        C  0.46175353  0.19863470  0.19791527    -0.12900
C872        C  0.43914387  0.18388029  0.18136928    -0.08600
C873        C  0.42061694  0.15782884  0.18949147     0.07000
C874        C  0.42571572  0.14673824  0.21310032    -0.13700
S875        S  0.49695525  0.20653327  0.24134883    -0.30600
H876        H  0.47602677  0.21850637  0.19151457     0.11300
S877        S  0.38983279  0.13803135  0.17124979    -0.27700
H878        H  0.41165705  0.12665122  0.21910975     0.08500
H879        H  0.47285559  0.08295015  0.28588772     0.26900
H880        H  0.50630772  0.23017507  0.22619173     0.21700
H881        H  0.38747336  0.15925968  0.16095454     0.27000
H882        H  0.42272550  0.17125143  0.26739725     0.15900
C883        C  0.43516499  0.14723273  0.04936579    -0.11400
C884        C  0.44899438  0.16460754  0.02733793     0.15100
C885        C  0.45539618  0.19120266  0.02948253     0.02000
C886        C  0.44994488  0.20029162  0.05450579    -0.15800
C887        C  0.43752133  0.18331015  0.07748884    -0.10600
C888        C  0.42890439  0.15609676  0.07406500     0.08800
C889        C  0.45819828  0.15481685  0.00353090     0.09800
S890        S  0.47728557  0.21659786  0.50353785    -0.24900
H891        H  0.45628155  0.22107957  0.05620481     0.20000
S892        S  0.40938907  0.13144331  0.09984167    -0.30600
H893        H  0.42956461  0.12662032  0.04746816     0.10400
C894        C  0.48653793  0.16084652  0.50354535     0.03600
C895        C  0.49370640  0.15044693  0.48077047    -0.12900
C896        C  0.47517676  0.13432453  0.46022232    -0.08600
C897        C  0.44864069  0.12846400  0.46326352     0.07000
C898        C  0.44174832  0.13954469  0.48562984    -0.13700
S899        S  0.50884643  0.18339848  0.02678744    -0.30600
H900        H  0.51399933  0.15503824  0.47902766     0.11300
S901        S  0.42227524  0.10620019  0.44037061    -0.27700
H902        H  0.42150714  0.13514350  0.48772522     0.08500
H903        H  0.39391419  0.14293488  0.10648982     0.26900
H904        H  0.53112057  0.18455712  0.01407943     0.21700
H905        H  0.42909316  0.08633764  0.44199618     0.27000
H906        H  0.46726681  0.19834110  0.48121507     0.15900
C907        C  0.44359806  0.23585714  0.63006901     0.80200
N908        N  0.44305576  0.22445155  0.65513903    -0.78100
C909        C  0.44085118  0.20024476  0.65581773     0.82600
N910        N  0.43971693  0.18769548  0.63127383    -0.78100
C911        C  0.43998871  0.19876884  0.60602415     0.82700
N912        N  0.44207600  0.22297239  0.60566303    -0.79800
C913        C  0.27394249  0.87009848  0.87188422     0.80200
N914        N  0.26361739  0.85963724  0.84618629    -0.78100
C915        C  0.24050901  0.83648856  0.84418820     0.82600
N916        N  0.22790077  0.82362642  0.86797596    -0.78100
C917        C  0.23802580  0.83349145  0.89379070     0.82700
N918        N  0.26124331  0.85673938  0.89570768    -0.79800
C919        C  0.88793151  0.21381740  0.61891467     0.80200
N920        N  0.89978028  0.22638361  0.64332571    -0.78100
C921        C  0.92261225  0.24993292  0.64250067     0.82600
N922        N  0.93346680  0.26075291  0.61725901    -0.78100
C923        C  0.92189513  0.24811912  0.59289941     0.82700
N924        N  0.89884835  0.22491323  0.59376229    -0.79800
C925        C  0.72286117  0.85394854  0.87806348     0.80200
N926        N  0.71805279  0.86333515  0.85394346    -0.78100
C927        C  0.71523695  0.88499235  0.85450754     0.82600
N928        N  0.71734900  0.89723391  0.87950779    -0.78100
C929        C  0.72206787  0.88813602  0.90383537     0.82700
N930        N  0.72444526  0.86619798  0.90297814    -0.79800
C931        C  0.91407876  0.68636281  0.62342778     0.80200
N932        N  0.90233750  0.68664284  0.64816060    -0.78100
C933        C  0.87939521  0.68719096  0.64794741     0.82600
N934        N  0.86802305  0.68687673  0.62303549    -0.78100
C935        C  0.87930217  0.68641325  0.59827700     0.82700
N936        N  0.90216060  0.68578100  0.59859386    -0.79800
C937        C  0.25535180  0.40287455  0.87296977     0.80200
N938        N  0.26794833  0.40267973  0.84896835    -0.78100
C939        C  0.29217306  0.40492868  0.85017365     0.82600
N940        N  0.30406477  0.40826950  0.87559112    -0.78100
C941        C  0.29190841  0.40887937  0.89974146     0.82700
N942        N  0.26751448  0.40613714  0.89824662    -0.79800
Zn943      Zn  0.04569613  0.41433740  0.90320796     1.49700
Zn944      Zn  0.04585218  0.41655258  0.83634722     1.49400
Zn945      Zn  0.99184581  0.38075630  0.86965480     1.49100
Zn946      Zn  0.01847681  0.44301056  0.87244136     1.49500
O947        O  0.02550302  0.41370508  0.87029360    -1.84200
O948        O  0.07886882  0.41426845  0.89247103    -0.74800
O949        O  0.02432094  0.38634472  0.80971166    -0.74600
O950        O  0.98790608  0.35777820  0.90267755    -0.74100
O951        O  0.07896953  0.41526401  0.84568309    -0.74800
O952        O  0.02446126  0.38260421  0.92722275    -0.74400
O953        O  0.98811864  0.36067093  0.83433748    -0.75000
O954        O  0.97946788  0.43075215  0.87254679    -0.74400
O955        O  0.05624927  0.45072580  0.81611853    -0.75100
O956        O  0.96118591  0.38722095  0.87116462    -0.74500
O957        O  0.03528542  0.46753596  0.83979984    -0.75000
O958        O  0.03428969  0.46441481  0.90764057    -0.74900
O959        O  0.05540676  0.44604944  0.92742443    -0.74700
C960        C  0.08948489  0.41458508  0.86894540     0.77100
C961        C  0.00207213  0.36532507  0.81222824     0.77600
C962        C  0.00225962  0.36166156  0.92426857     0.76600
C963        C  0.95911428  0.40784243  0.87209178     0.76900
C964        C  0.05028635  0.46871471  0.81973645     0.78100
C965        C  0.04886047  0.46372882  0.92715804     0.77100
Zn966      Zn  0.15773613  0.66784618  0.65627917     1.49700
Zn967      Zn  0.10346451  0.63558778  0.62336127     1.49400
Zn968      Zn  0.13640536  0.69909388  0.62014927     1.49100
Zn969      Zn  0.15787680  0.66486713  0.58958015     1.49500
O970        O  0.13872575  0.66687814  0.62228479    -1.84200
O971        O  0.13727873  0.63548335  0.67963103    -0.74800
O972        O  0.07523492  0.64582668  0.62283697    -0.74600
O973        O  0.15367226  0.72293317  0.65406351    -0.74100
O974        O  0.09846663  0.61392475  0.65820380    -0.74800
O975        O  0.16495969  0.69873068  0.68026902    -0.74400
O976        O  0.09831804  0.68964179  0.62051575    -0.75000
O977        O  0.16546342  0.69377299  0.56218337    -0.74400
O978        O  0.09836756  0.61118697  0.59079541    -0.75100
O979        O  0.15247156  0.71902801  0.58390648    -0.74500
O980        O  0.13718470  0.63040106  0.56924956    -0.75000
O981        O  0.19283156  0.66898862  0.60054862    -0.74900
O982        O  0.19265743  0.67110054  0.64725802    -0.74700
C983        C  0.11403783  0.61584449  0.67795910     0.77100
C984        C  0.07637497  0.66813301  0.62194312     0.77600
C985        C  0.16289425  0.71914134  0.67679678     0.76600
C986        C  0.16262926  0.71394657  0.56272505     0.76900
C987        C  0.11380340  0.61114140  0.57184415     0.78100
C988        C  0.20406263  0.67163584  0.62424154     0.77100
Zn989      Zn  0.51037472  0.06716320  0.87719953     1.49700
Zn990      Zn  0.53114983  0.12069829  0.91225409     1.49400
Zn991      Zn  0.53213603  0.12182091  0.84503173     1.49100
Zn992      Zn  0.47733758  0.09786841  0.87828580     1.49500
O993        O  0.51262685  0.10174265  0.87816857    -1.84200
O994        O  0.52798874  0.06231053  0.91140812    -0.74800
O995        O  0.56192016  0.15629287  0.90287955    -0.74600
O996        O  0.54638708  0.10268436  0.82235624    -0.74100
O997        O  0.54431113  0.10037655  0.93424338    -0.74800
O998        O  0.52964935  0.06375991  0.84317219    -0.74400
O999        O  0.56259890  0.15727226  0.85602933    -0.75000
O1000       O  0.47122177  0.11367989  0.84316555    -0.74400
O1001       O  0.50768846  0.12728061  0.93785369    -0.75100
O1002       O  0.50862930  0.12801058  0.81930941    -0.74500
O1003       O  0.47137325  0.11481164  0.91295100    -0.75000
O1004       O  0.44974306  0.05922476  0.87839124    -0.74900
O1005       O  0.47219191  0.03778465  0.87689927    -0.74700
C1006       C  0.54108126  0.07730665  0.93187311     0.77100
C1007       C  0.57177086  0.16820255  0.87978351     0.77600
C1008       C  0.54368503  0.07978109  0.82382773     0.76600
C1009       C  0.48527193  0.12411860  0.82130271     0.76900
C1010       C  0.48490034  0.12476681  0.93527155     0.78100
C1011       C  0.45042693  0.03780399  0.87780930     0.77100
Zn1012     Zn  0.65358925  0.01993732  0.62506422     1.49700
Zn1013     Zn  0.68309701  0.98599263  0.62761441     1.49400
Zn1014     Zn  0.62860062  0.96634709  0.66012592     1.49100
Zn1015     Zn  0.62934038  0.96494324  0.59298452     1.49500
O1016       O  0.64875367  0.98436142  0.62647384    -1.84200
O1017       O  0.69212709  0.04702378  0.62440283    -0.74800
O1018       O  0.68707056  0.96865701  0.66262423    -0.74600
O1019       O  0.61942280  0.98972629  0.68283462    -0.74100
O1020       O  0.71260612  0.02378139  0.62735343    -0.74800
O1021       O  0.63728888  0.02732442  0.65891381    -0.74400
O1022       O  0.64924791  0.95553915  0.68509126    -0.75000
O1023       O  0.59692857  0.93102084  0.60359238    -0.74400
O1024       O  0.68780584  0.96748277  0.59398453    -0.75100
O1025       O  0.59506711  0.93301529  0.65014796    -0.74500
O1026       O  0.65137569  0.95507147  0.56905747    -0.75000
O1027       O  0.61757108  0.98590978  0.56956049    -0.74900
O1028       O  0.63613486  0.02494388  0.59089193    -0.74700
C1029       C  0.71319399  0.04580546  0.62598577     0.77100
C1030       C  0.67188885  0.95753815  0.68354293     0.77600
C1031       C  0.62432798  0.01337032  0.67995650     0.76600
C1032       C  0.58545435  0.92118527  0.62688065     0.76900
C1033       C  0.67351134  0.95627860  0.57244675     0.78100
C1034       C  0.62185253  0.00943955  0.57134091     0.77100
C1035       C  0.72883125  0.35175040  0.88614100     0.80200
N1036       N  0.75360707  0.35541277  0.88449793    -0.78100
C1037       C  0.77484506  0.38006542  0.88252716     0.82600
N1038       N  0.77116013  0.40117752  0.88219759    -0.78100
C1039       C  0.74648343  0.39779316  0.88307272     0.82700
N1040       N  0.72540794  0.37304516  0.88519122    -0.79800
C1041       C  0.43469434  0.73431694  0.62640048     0.80200
N1042       N  0.44039741  0.71454916  0.62739902    -0.78100
C1043       C  0.42072266  0.68901301  0.62784644     0.82600
N1044       N  0.39523594  0.68332568  0.62797393    -0.78100
C1045       C  0.38926639  0.70292801  0.62788955     0.82700
N1046       N  0.40914994  0.72839000  0.62694373    -0.79800
Zn1047     Zn  0.46289139  0.50129320  0.59333852     1.49700
Zn1048     Zn  0.46455568  0.49792493  0.66003173     1.49400
Zn1049     Zn  0.42872432  0.44589031  0.62499573     1.49100
Zn1050     Zn  0.49150453  0.47338939  0.62166832     1.49500
O1051       O  0.46182778  0.47952990  0.62491230    -1.84200
O1052       O  0.46236527  0.53369051  0.60681923    -0.74800
O1053       O  0.43587339  0.47504695  0.68701674    -0.74600
O1054       O  0.40631651  0.44337090  0.59160162    -0.74100
O1055       O  0.46082834  0.52963440  0.65346234    -0.74800
O1056       O  0.43100034  0.48084893  0.56887712    -0.74400
O1057       O  0.40798705  0.44110921  0.66068736    -0.75000
O1058       O  0.47954270  0.43476054  0.62247508    -0.74400
O1059       O  0.49960626  0.51039706  0.67828820    -0.75100
O1060       O  0.43584049  0.41548960  0.62316436    -0.74500
O1061       O  0.51757913  0.49158516  0.65274878    -0.75000
O1062       O  0.51193225  0.48881609  0.58604455    -0.74900
O1063       O  0.49491877  0.51227360  0.56884494    -0.74700
C1064       C  0.46079380  0.54177693  0.63130235     0.77100
C1065       C  0.41405358  0.45366204  0.68397115     0.77600
C1066       C  0.41006531  0.45842991  0.57069541     0.76600
C1067       C  0.45686118  0.41407842  0.62255342     0.76900
C1068       C  0.51856901  0.50630284  0.67303736     0.78100
C1069       C  0.51187988  0.50471810  0.56786839     0.77100
Zn1070     Zn  0.74468701  0.61333725  0.87248237     1.49700
Zn1071     Zn  0.70999258  0.63118576  0.90794708     1.49400
Zn1072     Zn  0.70978395  0.63231016  0.84050521     1.49100
Zn1073     Zn  0.68230362  0.57713942  0.87362903     1.49500
O1074       O  0.71157103  0.61350181  0.87365040    -1.84200
O1075       O  0.76649695  0.63065891  0.90654793    -0.74800
O1076       O  0.71045786  0.66493942  0.89851238    -0.74600
O1077       O  0.74135287  0.64386745  0.81517483    -0.74100
O1078       O  0.74119274  0.64051764  0.93273547    -0.74800
O1079       O  0.76623851  0.63172915  0.83853690    -0.74400
O1080       O  0.70902144  0.66516566  0.85170046    -0.75000
O1081       O  0.66137574  0.56969802  0.83813457    -0.74400
O1082       O  0.67729721  0.60802543  0.93069147    -0.75100
O1083       O  0.67794096  0.60868948  0.81719479    -0.74500
O1084       O  0.65750114  0.57059411  0.90609953    -0.75000
O1085       O  0.69501395  0.55089126  0.87566181    -0.74900
O1086       O  0.73838824  0.57645796  0.87199519    -0.74700
C1087       C  0.76221033  0.63947453  0.92923440     0.77100
C1088       C  0.70982822  0.67574032  0.87547763     0.82000
C1089       C  0.76236766  0.64265499  0.81738373     0.76600
C1090       C  0.66114585  0.58412928  0.81827942     0.76900
C1091       C  0.65830775  0.58460363  0.92706879     0.78100
C1092       C  0.71797728  0.55370846  0.87388887     0.77100
C1093       C  0.57383758  0.55481971  0.72023648    -0.11400
C1094       C  0.58540716  0.53986076  0.72812920     0.15100
C1095       C  0.57600579  0.51451740  0.71648966     0.02000
C1096       C  0.55445764  0.50421432  0.69814113    -0.15800
C1097       C  0.54228591  0.51883989  0.69089907    -0.10600
C1098       C  0.55273860  0.54482133  0.70137265     0.08800
C1099       C  0.60559980  0.55041396  0.75041108     0.09800
S1100       S  0.59031228  0.49425836  0.72463736    -0.24900
H1101       H  0.54681529  0.48442172  0.68989592     0.20000
S1102       S  0.54062196  0.56647612  0.69101206    -0.30600
H1103       H  0.58122884  0.57439361  0.72902106     0.10400
C1104       C  0.63062302  0.57260276  0.74583401     0.03600
C1105       C  0.64829685  0.58321843  0.76841148    -0.12900
C1106       C  0.64138220  0.57214127  0.79552621    -0.08600
C1107       C  0.61615275  0.54972633  0.79985780     0.07000
C1108       C  0.59873902  0.53901639  0.77720964    -0.13700
S1109       S  0.64020872  0.58697785  0.71113168    -0.30600
H1110       H  0.66770275  0.60007931  0.76485318     0.11300
S1111       S  0.60418676  0.53471470  0.83383636    -0.27700
H1112       H  0.57926156  0.52216824  0.78068598     0.08500
H1113       H  0.53549048  0.55769915  0.66284932     0.26900
H1114       H  0.66508466  0.60809248  0.71879126     0.21700
H1115       H  0.61434249  0.55893646  0.84814503     0.27000
H1116       H  0.61589701  0.51518540  0.73016618     0.15900
C1117       C  0.56576904  0.51379238  0.51635803    -0.11400
C1118       C  0.57554123  0.54002920  0.50807733     0.15100
C1119       C  0.56358762  0.55410620  0.51858245     0.02000
C1120       C  0.54218519  0.54169444  0.53705093    -0.15800
C1121       C  0.53264687  0.51557439  0.54590384    -0.10600
C1122       C  0.54440915  0.50135639  0.53492005     0.08800
C1123       C  0.59583762  0.54941872  0.98762160     0.09800
S1124       S  0.57336783  0.58542789  0.01003851    -0.24900
H1125       H  0.53354776  0.55292270  0.54539359     0.20000
S1126       S  0.53254229  0.46708556  0.54268716    -0.30600
H1127       H  0.57459580  0.50278605  0.50787407     0.10400
C1128       C  0.62202704  0.55770933  0.99561065     0.03600
C1129       C  0.64224354  0.56960946  0.97552307    -0.12900
C1130       C  0.63667470  0.57335981  0.94770566    -0.08600
C1131       C  0.61049404  0.56555592  0.93999304     0.07000
C1132       C  0.59033230  0.55338611  0.95990894    -0.13700
S1133       S  0.63107977  0.55424491  0.53058652    -0.30600
H1134       H  0.66238198  0.57570149  0.98132811     0.11300
S1135       S  0.60169400  0.57145339  0.90546312    -0.27700
H1136       H  0.57023553  0.54738979  0.95394297     0.08500
H1137       H  0.50570630  0.45980927  0.54247084     0.26900
H1138       H  0.65802351  0.56331708  0.52603914     0.21700
H1139       H  0.62563056  0.59477677  0.90018335     0.27000
H1140       H  0.60012263  0.59300241  0.00701103     0.15900
C1141       C  0.41903882  0.62394735  0.61726689    -0.11400
C1142       C  0.43906833  0.62707387  0.63571906     0.15100
C1143       C  0.45326609  0.65068501  0.65118330     0.02000
C1144       C  0.44727115  0.67079959  0.64766743    -0.15800
C1145       C  0.42709096  0.66768949  0.62932410    -0.10600
C1146       C  0.41308328  0.64406805  0.61364892     0.08800
C1147       C  0.44590618  0.60608503  0.63662170     0.09800
S1148       S  0.47928611  0.65638022  0.67547739    -0.24900
H1149       H  0.45808033  0.68881674  0.65982191     0.20000
S1150       S  0.38864564  0.63897591  0.58747668    -0.30600
H1151       H  0.40851970  0.60597545  0.60497095     0.10400
C1152       C  0.43174298  0.58361683  0.65358959     0.03600
C1153       C  0.43791222  0.56340144  0.65240742    -0.12900
C1154       C  0.45759312  0.56506386  0.63413030    -0.08600
C1155       C  0.47227614  0.58804378  0.61780034     0.07000
C1156       C  0.46615946  0.60823134  0.61911054    -0.13700
S1157       S  0.40564655  0.58062657  0.67638421    -0.30600
H1158       H  0.42673600  0.54580626  0.66498032     0.11300
S1159       S  0.49925416  0.59300119  0.59535206    -0.27700
H1160       H  0.47712321  0.62568863  0.60624480     0.08500
H1161       H  0.40164225  0.66525242  0.57797883     0.26900
H1162       H  0.39708595  0.55471737  0.68545056     0.21700
H1163       H  0.50772562  0.57915704  0.61261274     0.27000
H1164       H  0.46899291  0.62992409  0.68345167     0.15900
C1165       C  0.75391238  0.46437119  0.86457475    -0.11400
C1166       C  0.73416283  0.46429880  0.88136090     0.15100
C1167       C  0.71830134  0.44218497  0.89837729     0.02000
C1168       C  0.72240258  0.42060274  0.89805897    -0.15800
C1169       C  0.74243764  0.42075916  0.88155860    -0.10600
C1170       C  0.75815701  0.44291362  0.86434603     0.08800
C1171       C  0.73000309  0.48717561  0.87973432     0.09800
S1172       S  0.69292581  0.44054185  0.92132499    -0.24900
H1173       H  0.71026553  0.40381303  0.91139546     0.20000
S1174       S  0.78294010  0.44462417  0.84044040    -0.30600
H1175       H  0.76578883  0.48113454  0.85108853     0.10400
C1176       C  0.74920267  0.51222139  0.88962438     0.03600
C1177       C  0.74473392  0.53348593  0.88717977    -0.12900
C1178       C  0.72151743  0.53038710  0.87484229    -0.08600
C1179       C  0.70254996  0.50527472  0.86434478     0.07000
C1180       C  0.70687825  0.48394998  0.86722793    -0.13700
S1181       S  0.77899094  0.51697257  0.90635727    -0.30600
H1182       H  0.75923230  0.55256741  0.89546195     0.11300
S1183       S  0.67316135  0.49929339  0.84586181    -0.27700
H1184       H  0.69237851  0.46477046  0.85909531     0.08500
H1185       H  0.76802470  0.41815939  0.83164664     0.26900
H1186       H  0.79174054  0.54465184  0.90817456     0.21700
H1187       H  0.68567814  0.52310143  0.83067777     0.27000
H1188       H  0.70545280  0.46772285  0.92716918     0.15900
C1189       C  0.52348270  0.85823462  0.60415720    -0.11400
C1190       C  0.51862617  0.84256364  0.62810912     0.15100
C1191       C  0.53488852  0.85316790  0.65204825     0.02000
C1192       C  0.55572129  0.87921561  0.65144807    -0.15800
C1193       C  0.56115266  0.89491048  0.62720907    -0.10600
C1194       C  0.54424879  0.88428791  0.60353524     0.08800
C1195       C  0.49659997  0.81515097  0.62725067     0.09800
S1196       S  0.53053429  0.83436867  0.68370874    -0.24900
H1197       H  0.56842314  0.88689367  0.66976152     0.20000
S1198       S  0.54719331  0.90307383  0.57240658    -0.30600
H1199       H  0.51072828  0.85016159  0.58591494     0.10400
C1200       C  0.47280594  0.80740612  0.64165304     0.03600
C1201       C  0.45277809  0.78091746  0.64074327    -0.12900
C1202       C  0.45598329  0.76213106  0.62538852    -0.08600
C1203       C  0.47946191  0.77037759  0.60983667     0.07000
C1204       C  0.49960204  0.79667411  0.61128539    -0.13700
S1205       S  0.46788711  0.83129036  0.66087471    -0.30600
H1206       H  0.43469723  0.77473192  0.65237466     0.11300
S1207       S  0.48452935  0.74883628  0.58665778    -0.27700
H1208       H  0.51771510  0.80289867  0.59964458     0.08500
H1209       H  0.55249248  0.92570142  0.58791425     0.26900
H1210       H  0.44189516  0.81379795  0.66963344     0.21700
H1211       H  0.45835633  0.73515631  0.57678427     0.27000
H1212       H  0.52016258  0.80961292  0.67053766     0.15900
C1213       C  0.68415392  0.27782465  0.89692084    -0.11400
C1214       C  0.66153102  0.27347977  0.88235184     0.15100
C1215       C  0.66070272  0.29497208  0.87012192     0.02000
C1216       C  0.68257789  0.32031518  0.87256350    -0.15800
C1217       C  0.70558131  0.32478351  0.88666600    -0.10600
C1218       C  0.70601931  0.30318550  0.89952367     0.08800
C1219       C  0.63868011  0.24647849  0.88139229     0.09800
S1220       S  0.63246504  0.29134570  0.85094717    -0.24900
H1221       H  0.68186008  0.33656620  0.86256141     0.20000
S1222       S  0.73310704  0.30663166  0.92072948    -0.30600
H1223       H  0.68453747  0.26135480  0.90683133     0.10400
C1224       C  0.63762020  0.22762052  0.86213765     0.03600
C1225       C  0.61540202  0.20224245  0.86181619    -0.12900
C1226       C  0.59432032  0.19538656  0.88049742    -0.08600
C1227       C  0.59535496  0.21458050  0.89947572     0.07000
C1228       C  0.61762078  0.23978833  0.89989558    -0.13700
S1229       S  0.66436595  0.23610155  0.83769978    -0.30600
H1230       H  0.61454306  0.18757062  0.84722031     0.11300
S1231       S  0.56851640  0.20862117  0.92272173    -0.27700
H1232       H  0.61839111  0.25448103  0.91443368     0.08500
H1233       H  0.73826729  0.33058070  0.93323530     0.26900
H1234       H  0.65314338  0.21150711  0.82395493     0.21700
H1235       H  0.54840866  0.19283322  0.90350740     0.27000
H1236       H  0.62395983  0.26578986  0.84067985     0.15900
C1237       C  0.57170676  0.06829171  0.99891669    -0.11400
C1238       C  0.57832615  0.04950202  0.98998753     0.15100
C1239       C  0.57206890  0.03945379  0.96225514     0.02000
C1240       C  0.55949604  0.04848966  0.94410738    -0.15800
C1241       C  0.55339877  0.06785162  0.95269595    -0.10600
C1242       C  0.55955163  0.07768956  0.98066080     0.08800
C1243       C  0.58895381  0.03876674  0.50988995     0.09800
S1244       S  0.57979476  0.01529597  0.94863756    -0.24900
H1245       H  0.55501576  0.04071461  0.92281328     0.20000
S1246       S  0.55102686  0.10096725  0.99495447    -0.30600
H1247       H  0.57588920  0.07555333  0.02042782     0.10400
C1248       C  0.61475719  0.05502842  0.52022002     0.03600
C1249       C  0.62497108  0.04502441  0.54038806    -0.12900
C1250       C  0.60992374  0.01907298  0.55041745    -0.08600
C1251       C  0.58386986  0.00309854  0.54033447     0.07000
C1252       C  0.57384208  0.01299208  0.52005231    -0.13700
S1253       S  0.63585060  0.08927160  0.00918450    -0.30600
H1254       H  0.64489525  0.05731852  0.54810609     0.11300
S1255       S  0.56173527  0.97058423  0.55363297    -0.27700
H1256       H  0.55379521  0.00070154  0.51258558     0.08500
H1257       H  0.57087619  0.12207437  0.97949225     0.26900
H1258       H  0.65859640  0.09515687  0.02474462     0.21700
H1259       H  0.57015043  0.97677301  0.58181243     0.27000
H1260       H  0.60243743  0.02316783  0.96520336     0.15900
C1261       C  0.58907051  0.07988987  0.76552618    -0.11400
C1262       C  0.57830548  0.05278359  0.76078843     0.15100
C1263       C  0.55652018  0.03474711  0.77706180     0.02000
C1264       C  0.54616422  0.04413028  0.79772743    -0.15800
C1265       C  0.55666337  0.07131169  0.80245159    -0.10600
C1266       C  0.57872702  0.08936755  0.78614186     0.08800
C1267       C  0.59104016  0.04384496  0.73984597     0.09800
S1268       S  0.54070700  0.99950564  0.77213222    -0.24900
H1269       H  0.52926251  0.02993981  0.80977406     0.20000
S1270       S  0.59555907  0.12462442  0.79117243    -0.30600
H1271       H  0.60611995  0.09379879  0.75344194     0.10400
C1272       C  0.59073845  0.04863436  0.71075990     0.03600
C1273       C  0.60254149  0.03923641  0.69173898    -0.12900
C1274       C  0.61412992  0.02463011  0.70113363    -0.08600
C1275       C  0.61479414  0.02022340  0.73032743     0.07000
C1276       C  0.60343454  0.03007348  0.74934426    -0.13700
S1277       S  0.57397039  0.06530905  0.69768994    -0.30600
H1278       H  0.60187170  0.04239395  0.66933339     0.11300
S1279       S  0.63086489  0.00291821  0.74365965    -0.27700
H1280       H  0.60395910  0.02690176  0.77176635     0.08500
H1281       H  0.59604409  0.12314400  0.82076685     0.26900
H1282       H  0.58128678  0.06634988  0.66925178     0.21700
H1283       H  0.62431595  0.00287998  0.77221424     0.27000
H1284       H  0.54553832  0.00033231  0.74299445     0.15900
C1285       C  0.31442091  0.66852460  0.63578334    -0.11400
C1286       C  0.30934691  0.68741214  0.62395253     0.15100
C1287       C  0.33041425  0.71130848  0.61386756     0.02000
C1288       C  0.35611374  0.71580687  0.61578716    -0.15800
C1289       C  0.36148491  0.69695802  0.62758485    -0.10600
C1290       C  0.34018853  0.67313081  0.63815211     0.08800
C1291       C  0.28211046  0.68248808  0.62423823     0.09800
S1292       S  0.32583433  0.73691386  0.59851942    -0.24900
H1293       H  0.37201296  0.73415412  0.60754847     0.20000
S1294       S  0.34431769  0.64853904  0.65656125    -0.30600
H1295       H  0.29820663  0.65041879  0.64411036     0.10400
C1296       C  0.26330971  0.66556157  0.60446399     0.03600
C1297       C  0.23791505  0.66230623  0.60494539    -0.12900
C1298       C  0.23102314  0.67565537  0.62487022    -0.08600
C1299       C  0.25014223  0.69274574  0.64458076     0.07000
C1300       C  0.27530668  0.69567767  0.64424228    -0.13700
S1301       S  0.27195218  0.64877134  0.57819347    -0.30600
H1302       H  0.22333836  0.64927925  0.58980729     0.11300
S1303       S  0.24435609  0.71258693  0.66957378    -0.27700
H1304       H  0.28998493  0.70891178  0.65921685     0.08500
H1305       H  0.36577428  0.66706058  0.67279292     0.26900
H1306       H  0.24715027  0.63540615  0.56493798     0.21700
H1307       H  0.23033078  0.71941728  0.65054585     0.27000
H1308       H  0.30081149  0.72005416  0.58692331     0.15900
C1309       C  0.83389649  0.37196222  0.86516439    -0.11400
C1310       C  0.85390076  0.39296870  0.88046755     0.15100
C1311       C  0.84782063  0.40976621  0.89612670     0.02000
C1312       C  0.82203461  0.40537498  0.89589730    -0.15800
C1313       C  0.80186177  0.38414072  0.88089814    -0.10600
C1314       C  0.80805829  0.36741362  0.86508344     0.08800
C1315       C  0.88097600  0.39712157  0.87900262     0.09800
S1316       S  0.87188263  0.43673634  0.91727517    -0.24900
H1317       H  0.81753972  0.41827471  0.90818321     0.20000
S1318       S  0.78441425  0.34079875  0.84325756    -0.30600
H1319       H  0.83859776  0.35925349  0.85279480     0.10400
C1320       C  0.88725050  0.37916600  0.89149577     0.03600
C1321       C  0.91277413  0.38305524  0.88853667    -0.12900
C1322       C  0.93238787  0.40472984  0.87356139    -0.08600
C1323       C  0.92596702  0.42278671  0.86113288     0.07000
C1324       C  0.90044314  0.41886626  0.86416591    -0.13700
S1325       S  0.86297061  0.35179748  0.91206789    -0.30600
H1326       H  0.91762362  0.36935792  0.89838868     0.11300
S1327       S  0.94886462  0.45042382  0.84006214    -0.27700
H1328       H  0.89551187  0.43254499  0.85435265     0.08500
H1329       H  0.77192017  0.35452420  0.83362773     0.26900
H1330       H  0.87929470  0.34163286  0.91995330     0.21700
H1331       H  0.95965259  0.43660650  0.82639881     0.27000
H1332       H  0.88706602  0.42502320  0.92408446     0.15900
C1333       C  0.11077929  0.56054636  0.51885874    -0.11400
C1334       C  0.08366778  0.54607380  0.51342186     0.15100
C1335       C  0.06643355  0.55211579  0.52818748     0.02000
C1336       C  0.07682472  0.57327021  0.54715129    -0.15800
C1337       C  0.10410324  0.58830487  0.55231899    -0.10600
C1338       C  0.12116587  0.58124404  0.53839603     0.08800
C1339       C  0.07617551  0.52475545  0.99041550     0.09800
S1340       S  0.03276300  0.53181883  0.02365041    -0.24900
H1341       H  0.06341213  0.57815804  0.55775139     0.20000
S1342       S  0.15611946  0.59696669  0.54512004    -0.30600
H1343       H  0.12394794  0.55557443  0.50782457     0.10400
C1344       C  0.06828552  0.52852793  0.96365234     0.03600
C1345       C  0.05944628  0.50827294  0.94357244    -0.12900
C1346       C  0.05859994  0.48430648  0.94951248    -0.08600
C1347       C  0.06681900  0.48082558  0.97651767     0.07000
C1348       C  0.07546399  0.50104210  0.99655794    -0.13700
S1349       S  0.06988536  0.55932368  0.95493391    -0.30600
H1350       H  0.05340855  0.51128221  0.92300172     0.11300
S1351       S  0.06553395  0.45075782  0.98738166    -0.27700
H1352       H  0.07645115  0.49755357  0.51929469     0.08500
H1353       H  0.15351588  0.59771139  0.57456901     0.26900
H1354       H  0.06258366  0.55342290  0.92644011     0.21700
H1355       H  0.08626338  0.45472409  0.96925799     0.27000
H1356       H  0.03139288  0.50810178  0.01536978     0.15900
C1357       C  0.11261340  0.56646061  0.73080984    -0.11400
C1358       C  0.08598107  0.55310954  0.73857981     0.15100
C1359       C  0.06865578  0.56066490  0.72674269     0.02000
C1360       C  0.07837240  0.58136630  0.70729513    -0.15800
C1361       C  0.10501303  0.59455592  0.69910024    -0.10600
C1362       C  0.12224638  0.58675884  0.71097587     0.08800
C1363       C  0.07705205  0.53148785  0.75919901     0.09800
S1364       S  0.03405810  0.54474915  0.73552767    -0.24900
H1365       H  0.06497828  0.58715834  0.69841120     0.20000
S1366       S  0.15633565  0.60076896  0.70076260    -0.30600
H1367       H  0.12588079  0.56057068  0.73984711     0.10400
C1368       C  0.07391133  0.50683259  0.75150493     0.03600
C1369       C  0.06563630  0.48689417  0.77180656    -0.12900
C1370       C  0.06057641  0.49113900  0.79976522    -0.08600
C1371       C  0.06463908  0.51633732  0.80749256     0.07000
C1372       C  0.07239236  0.53599923  0.78704035    -0.13700
S1373       S  0.07973623  0.50056608  0.71562563    -0.30600
H1374       H  0.06261481  0.46773904  0.76572093     0.11300
S1375       S  0.06163245  0.52528452  0.84316063    -0.27700
H1376       H  0.07538342  0.55520477  0.79297641     0.08500
H1377       H  0.15143831  0.60097609  0.67174046     0.26900
H1378       H  0.07275982  0.47403695  0.71946070     0.21700
H1379       H  0.07373315  0.51214596  0.85544168     0.27000
H1380       H  0.03077281  0.51977790  0.74147863     0.15900
C1381       C  0.15632982  0.42320373  0.88883379    -0.11400
C1382       C  0.15906570  0.40728488  0.86855596     0.15100
C1383       C  0.13902119  0.39405364  0.84824603     0.02000
C1384       C  0.11706006  0.39757935  0.84824734    -0.15800
C1385       C  0.11418218  0.41343446  0.86863260    -0.10600
C1386       C  0.13430618  0.42658818  0.88900295     0.08800
C1387       C  0.18341030  0.40553539  0.86881313     0.09800
S1388       S  0.14007115  0.37212454  0.82211314    -0.24900
H1389       H  0.10165502  0.38714088  0.83274401     0.20000
S1390       S  0.13372176  0.44882115  0.91502198    -0.30600
H1391       H  0.17179224  0.43353109  0.90431025     0.10400
C1392       C  0.20349605  0.41883700  0.84870042     0.03600
C1393       C  0.22637858  0.41687005  0.85002201    -0.12900
C1394       C  0.22978048  0.40216720  0.87130645    -0.08600
C1395       C  0.20939659  0.38862082  0.89124725     0.07000
C1396       C  0.18663507  0.39071034  0.88995682    -0.13700
S1397       S  0.20048410  0.43924641  0.82214176    -0.30600
H1398       H  0.24207376  0.42752533  0.83494159     0.11300
S1399       S  0.21071607  0.36764632  0.91819981    -0.27700
H1400       H  0.17109933  0.38039131  0.90532967     0.08500
H1401       H  0.12225242  0.45942844  0.89710660     0.26900
H1402       H  0.22495888  0.44759753  0.80901027     0.21700
H1403       H  0.22424233  0.35828717  0.90156683     0.27000
H1404       H  0.15512536  0.36419866  0.83803506     0.15900
C1405       C  0.35105662  0.41773575  0.52207597    -0.11400
C1406       C  0.35522696  0.43354786  0.00051227     0.15100
C1407       C  0.37683164  0.46221525  0.50382312     0.02000
C1408       C  0.39360652  0.46886667  0.52707236    -0.15800
C1409       C  0.39013672  0.45006752  0.54766258    -0.10600
C1410       C  0.36826362  0.42408037  0.54496272     0.08800
C1411       C  0.33761183  0.42542976  0.97574706     0.09800
S1412       S  0.38414082  0.48755300  0.47798418    -0.24900
H1413       H  0.40993898  0.48891124  0.52860223     0.20000
S1414       S  0.36149142  0.39762458  0.56892645    -0.30600
H1415       H  0.33470752  0.39475919  0.01870244     0.10400
C1416       C  0.33981042  0.41022799  0.95401131     0.03600
C1417       C  0.32395551  0.40438073  0.92996460    -0.12900
C1418       C  0.30594244  0.41350045  0.92704620    -0.08600
C1419       C  0.30353451  0.42836541  0.94931914     0.07000
C1420       C  0.31939925  0.43417286  0.97330279    -0.13700
S1421       S  0.36387888  0.39955925  0.95620625    -0.30600
H1422       H  0.32594346  0.39300684  0.91310503     0.11300
S1423       S  0.28239335  0.44242923  0.94756277    -0.27700
H1424       H  0.31744201  0.44790480  0.49081539     0.08500
H1425       H  0.38652071  0.40024443  0.56505674     0.26900
H1426       H  0.35771694  0.38595262  0.93032843     0.21700
H1427       H  0.25930573  0.41762212  0.94939368     0.27000
H1428       H  0.37602480  0.46824768  0.95400893     0.15900
C1429       C  0.35831697  0.40965647  0.73416567    -0.11400
C1430       C  0.35896716  0.42849541  0.75294089     0.15100
C1431       C  0.37843000  0.45525563  0.74970052     0.02000
C1432       C  0.39596106  0.46270962  0.72706191    -0.15800
C1433       C  0.39524914  0.44398900  0.70789529    -0.10600
C1434       C  0.37644187  0.41699256  0.71200091     0.08800
C1435       C  0.33953232  0.41966381  0.77610159     0.09800
S1436       S  0.38206248  0.48086754  0.77370525    -0.24900
H1437       H  0.41031550  0.48343781  0.72442949     0.20000
S1438       S  0.37517062  0.39081273  0.69073277    -0.30600
H1439       H  0.34377273  0.38901804  0.73706120     0.10400
C1440       C  0.31936742  0.42609766  0.77670518     0.03600
C1441       C  0.30333219  0.41992363  0.80064480    -0.12900
C1442       C  0.30689097  0.40719479  0.82391603    -0.08600
C1443       C  0.32577528  0.39886980  0.82222128     0.07000
C1444       C  0.34200336  0.40538804  0.79836856    -0.13700
S1445       S  0.31434112  0.44253751  0.74718716    -0.30600
H1446       H  0.28868923  0.42603472  0.80166761     0.11300
S1447       S  0.32889397  0.37926365  0.84972441    -0.27700
H1448       H  0.35709765  0.39988187  0.79720816     0.08500
H1449       H  0.40273082  0.40187334  0.68950101     0.26900
H1450       H  0.29130251  0.44152368  0.75746983     0.21700
H1451       H  0.35056575  0.37832242  0.83821836     0.27000
H1452       H  0.37308727  0.46494923  0.79789546     0.15900
C1453       C  0.97929633  0.69075142  0.64345223    -0.11400
C1454       C  0.98175341  0.67565287  0.62198778     0.15100
C1455       C  0.96213699  0.66431482  0.60099473     0.02000
C1456       C  0.94070610  0.66864636  0.60172396    -0.15800
C1457       C  0.93807556  0.68380438  0.62323257    -0.10600
C1458       C  0.95797077  0.69523868  0.64413027     0.08800
C1459       C  0.00577537  0.67340780  0.62132555     0.09800
S1460       S  0.96339477  0.64433216  0.57265794    -0.24900
H1461       H  0.92566102  0.65958820  0.58559365     0.20000
S1462       S  0.95846750  0.71714308  0.67111614    -0.30600
H1463       H  0.99461209  0.69982747  0.65931926     0.10400
C1464       C  0.02738828  0.69000414  0.60413173     0.03600
C1465       C  0.05016140  0.68783487  0.60479852    -0.12900
C1466       C  0.05178999  0.66940343  0.62235827    -0.08600
C1467       C  0.03014801  0.65307941  0.63993340     0.07000
C1468       C  0.00735657  0.65514949  0.63905931    -0.13700
S1469       S  0.02605562  0.71415134  0.58161260    -0.30600
H1470       H  0.06672988  0.70040336  0.59140435     0.11300
S1471       S  0.03080511  0.63027908  0.66496086    -0.27700
H1472       H  0.99085327  0.64274141  0.65263845     0.08500
H1473       H  0.94953971  0.73015182  0.65317579     0.26900
H1474       H  0.05212341  0.72578635  0.57159004     0.21700
H1475       H  0.05727502  0.64681862  0.67291696     0.27000
H1476       H  0.97761787  0.63464317  0.58730520     0.15900
C1477       C  0.80298154  0.67991169  0.75308127    -0.11400
C1478       C  0.81789647  0.66749673  0.74899056     0.15100
C1479       C  0.81570456  0.64822946  0.76829762     0.02000
C1480       C  0.79804822  0.64126869  0.79077490    -0.15800
C1481       C  0.78236978  0.65302376  0.79458876    -0.10600
C1482       C  0.78547589  0.67313970  0.77575619     0.08800
C1483       C  0.83355188  0.67322864  0.72297845     0.09800
S1484       S  0.83345333  0.63048279  0.76468480    -0.24900
H1485       H  0.79595146  0.62581470  0.80490253     0.20000
S1486       S  0.76813481  0.69119225  0.77946103    -0.30600
H1487       H  0.80475107  0.69475349  0.73822511     0.10400
C1488       C  0.82227674  0.65826198  0.69843269     0.03600
C1489       C  0.83778593  0.66358935  0.67425951    -0.12900
C1490       C  0.86434233  0.68371834  0.67404633    -0.08600
C1491       C  0.87529387  0.69940178  0.69840166     0.07000
C1492       C  0.85983261  0.69382316  0.72273417    -0.13700
S1493       S  0.78819758  0.63216361  0.69802768    -0.30600
H1494       H  0.82932334  0.65166378  0.65552887     0.11300
S1495       S  0.90816388  0.72744797  0.69941390    -0.27700
H1496       H  0.86823782  0.70564582  0.74155451     0.08500
H1497       H  0.77085328  0.69350811  0.80897715     0.26900
H1498       H  0.78677918  0.62660972  0.66899216     0.21700
H1499       H  0.90895896  0.73410281  0.67081845     0.27000
H1500       H  0.85369551  0.64826548  0.74691362     0.15900
C1501       C  0.81644882  0.64713831  0.97908223    -0.11400
C1502       C  0.81806992  0.66628794  0.49674130     0.15100
C1503       C  0.80154978  0.67755661  0.99287318     0.02000
C1504       C  0.78378302  0.66847360  0.97037571    -0.15800
C1505       C  0.78190327  0.64862249  0.95216582    -0.10600
C1506       C  0.79860443  0.63790488  0.95665437     0.08800
C1507       C  0.83377218  0.67196689  0.52270358     0.09800
S1508       S  0.80234725  0.70306773  0.01503569    -0.24900
H1509       H  0.77135504  0.67707144  0.96704700     0.20000
S1510       S  0.79691583  0.61109907  0.93613778    -0.30600
H1511       H  0.82880513  0.63790921  0.48278092     0.10400
C1512       C  0.82137674  0.66248057  0.54891064     0.03600
C1513       C  0.83684533  0.66809244  0.57312115    -0.12900
C1514       C  0.86455395  0.68283999  0.57178372    -0.08600
C1515       C  0.87687867  0.69245957  0.54535688     0.07000
C1516       C  0.86134507  0.68658294  0.52107418    -0.13700
S1517       S  0.78588973  0.64222172  0.55141635    -0.30600
H1518       H  0.82723436  0.66024007  0.59313979     0.11300
S1519       S  0.91202234  0.71313121  0.54121383    -0.27700
H1520       H  0.87035262  0.69411513  0.00070266     0.08500
H1521       H  0.76918243  0.59609053  0.93651882     0.26900
H1522       H  0.78444523  0.64026361  0.58099627     0.21700
H1523       H  0.91553639  0.72741709  0.56630029     0.27000
H1524       H  0.82912430  0.71377335  0.52298032     0.15900
C1525       C  0.73756680  0.79893548  0.89483172    -0.11400
C1526       C  0.71894175  0.77862900  0.87765105     0.15100
C1527       C  0.70224618  0.78342573  0.86032242     0.02000
C1528       C  0.70479484  0.80845052  0.86011861    -0.15800
C1529       C  0.72318628  0.82883010  0.87748919    -0.10600
C1530       C  0.74002046  0.82401775  0.89479841     0.08800
C1531       C  0.71767890  0.75278558  0.87749186     0.09800
S1532       S  0.67712469  0.75834087  0.83819621    -0.24900
H1533       H  0.69158222  0.81173059  0.84696505     0.20000
S1534       S  0.76569430  0.84918883  0.91631191    -0.30600
H1535       H  0.75059328  0.79533650  0.90793732     0.10400
C1536       C  0.72860980  0.74540596  0.85523736     0.03600
C1537       C  0.72528606  0.71996689  0.85482682    -0.12900
C1538       C  0.71113884  0.70166460  0.87620621    -0.08600
C1539       C  0.69987918  0.70913645  0.89827765     0.07000
C1540       C  0.70374487  0.73473215  0.89896704    -0.13700
S1541       S  0.74702581  0.76853057  0.82755511    -0.30600
H1542       H  0.73411908  0.71444374  0.83801361     0.11300
S1543       S  0.67899821  0.68657825  0.92513253    -0.27700
H1544       H  0.69488643  0.74030418  0.91574077     0.08500
H1545       H  0.77183300  0.86992142  0.89735233     0.26900
H1546       H  0.75282009  0.75161264  0.81189110     0.21700
H1547       H  0.66648659  0.66470067  0.90689869     0.27000
H1548       H  0.67092207  0.73704992  0.85629717     0.15900
C1549       C  0.67511597  0.91411894  0.51215939    -0.11400
C1550       C  0.70226891  0.92595150  0.50714235     0.15100
C1551       C  0.72002845  0.94681644  0.52469508     0.02000
C1552       C  0.71018546  0.95604910  0.54610143    -0.15800
C1553       C  0.68290138  0.94458980  0.55078462    -0.10600
C1554       C  0.66528069  0.92270356  0.53407465     0.08800
C1555       C  0.71058249  0.91787805  0.98247331     0.09800
S1556       S  0.75534116  0.96255422  0.52069730    -0.24900
H1557       H  0.72397439  0.97258004  0.55892584     0.20000
S1558       S  0.63016090  0.90416183  0.54005378    -0.30600
H1559       H  0.66114315  0.89826123  0.00004324     0.10400
C1560       C  0.70675199  0.89216892  0.98066474     0.03600
C1561       C  0.71197207  0.88342620  0.95517936    -0.12900
C1562       C  0.72116330  0.89991982  0.93136426    -0.08600
C1563       C  0.72682446  0.92638842  0.93407530     0.07000
C1564       C  0.72101732  0.93484003  0.95932429    -0.13700
S1565       S  0.69454376  0.86926329  0.51011113    -0.30600
H1566       H  0.70784344  0.86326752  0.95354756     0.11300
S1567       S  0.74187047  0.95061250  0.90653499    -0.27700
H1568       H  0.72438590  0.95477232  0.96086253     0.08500
H1569       H  0.63226161  0.90492947  0.56964927     0.26900
H1570       H  0.69590102  0.84910876  0.99815565     0.21700
H1571       H  0.75845052  0.94118053  0.89710528     0.27000
H1572       H  0.75554660  0.94192023  0.00923633     0.15900
C1573       C  0.68955820  0.91666318  0.80278727    -0.11400
C1574       C  0.69905289  0.91285863  0.77712677     0.15100
C1575       C  0.71367647  0.89968059  0.77686259     0.02000
C1576       C  0.71884795  0.89103415  0.80235045    -0.15800
C1577       C  0.70912497  0.89459677  0.82818637    -0.10600
C1578       C  0.69378843  0.90718210  0.82807305     0.08800
C1579       C  0.69278677  0.92267610  0.75123366     0.09800
S1580       S  0.72592999  0.89303333  0.74479056    -0.24900
H1581       H  0.73045800  0.88130261  0.80193654     0.20000
S1582       S  0.67739807  0.91028570  0.85882662    -0.30600
H1583       H  0.67797987  0.92644567  0.80295271     0.10400
C1584       C  0.66674714  0.91066464  0.74098820     0.03600
C1585       C  0.66067507  0.92241034  0.71875696    -0.12900
C1586       C  0.68010043  0.94600394  0.70641792    -0.08600
C1587       C  0.70639213  0.95769097  0.71637417     0.07000
C1588       C  0.71245997  0.94576111  0.73847003    -0.13700
S1589       S  0.64126883  0.88017334  0.75610041    -0.30600
H1590       H  0.64064943  0.91310794  0.71086218     0.11300
S1591       S  0.73267391  0.98861869  0.70326435    -0.27700
H1592       H  0.73242079  0.95515472  0.74662252     0.08500
H1593       H  0.66865803  0.88443760  0.86828366     0.26900
H1594       H  0.61998102  0.87918362  0.74130225     0.21700
H1595       H  0.71714980  0.00071527  0.70135331     0.27000
H1596       H  0.70555191  0.89071960  0.72722215     0.15900
C1597       C  0.83483150  0.14380094  0.63529427    -0.11400
C1598       C  0.81374209  0.14184113  0.61943244     0.15100
C1599       C  0.81726425  0.16356072  0.60323283     0.02000
C1600       C  0.84167709  0.18684539  0.60359416    -0.15800
C1601       C  0.86280668  0.18877985  0.61942525    -0.10600
C1602       C  0.85943122  0.16680596  0.63501831     0.08800
C1603       C  0.78815891  0.11713215  0.62095167     0.09800
S1604       S  0.79152834  0.16276015  0.58163239    -0.24900
H1605       H  0.84423315  0.20360205  0.59139473     0.20000
S1606       S  0.88588376  0.16625704  0.65376186    -0.30600
H1607       H  0.83217863  0.12707703  0.64762136     0.10400
C1608       C  0.78479313  0.09340147  0.60954578     0.03600
C1609       C  0.76028951  0.07028529  0.61210370    -0.12900
C1610       C  0.73900099  0.07046509  0.62563382    -0.08600
C1611       C  0.74273189  0.09433158  0.63749174     0.07000
C1612       C  0.76713781  0.11736566  0.63476266    -0.13700
S1613       S  0.81137719  0.09278294  0.59079113    -0.30600
H1614       H  0.75750917  0.05210888  0.60293038     0.11300
S1615       S  0.71772617  0.09664607  0.65744594    -0.27700
H1616       H  0.76996113  0.13558598  0.64393367     0.08500
H1617       H  0.90592040  0.18276538  0.63489929     0.26900
H1618       H  0.79716528  0.06612313  0.58256462     0.21700
H1619       H  0.70851912  0.07236308  0.67129829     0.27000
H1620       H  0.77912156  0.13572355  0.57508963     0.15900
C1621       C  0.99577187  0.32526443  0.74633916    -0.11400
C1622       C  0.96837034  0.31186013  0.74254110     0.15100
C1623       C  0.95219742  0.31483192  0.76247525     0.02000
C1624       C  0.96381569  0.33207435  0.78511432    -0.15800
C1625       C  0.99133620  0.34616222  0.78874192    -0.10600
C1626       C  0.00742875  0.34206973  0.76944058     0.08800
C1627       C  0.95724045  0.29623066  0.71670238     0.09800
S1628       S  0.91672889  0.29807252  0.75952463    -0.24900
H1629       H  0.95117559  0.33487148  0.79974299     0.20000
S1630       S  0.04265545  0.35694965  0.77340124    -0.30600
H1631       H  0.00813162  0.32266840  0.73112715     0.10400
C1632       C  0.95144589  0.30707961  0.69323590     0.03600
C1633       C  0.94035865  0.29150631  0.66921308    -0.12900
C1634       C  0.93441689  0.26512532  0.66847236    -0.08600
C1635       C  0.94015213  0.25424732  0.69209229     0.07000
C1636       C  0.95179265  0.27006194  0.71594106    -0.13700
S1637       S  0.95822894  0.34076839  0.69390338    -0.30600
H1638       H  0.93598859  0.29978791  0.65100641     0.11300
S1639       S  0.93391497  0.22080114  0.69158997    -0.27700
H1640       H  0.95645604  0.26207575  0.73418790     0.08500
H1641       H  0.04189643  0.35423265  0.80291979     0.26900
H1642       H  0.94489008  0.33944505  0.66875678     0.21700
H1643       H  0.94145166  0.22020679  0.71961141     0.27000
H1644       H  0.91375874  0.27512598  0.74658387     0.15900
C1645       C  0.97200005  0.28554451  0.53606649    -0.11400
C1646       C  0.95648082  0.28989133  0.51676417     0.15100
C1647       C  0.92905166  0.27816581  0.52125902     0.02000
C1648       C  0.91792608  0.26315230  0.54553624    -0.15800
C1649       C  0.93375321  0.26022586  0.56573204    -0.10600
C1650       C  0.96093455  0.27079340  0.56045013     0.08800
C1651       C  0.96979982  0.30829316  0.49334751     0.09800
S1652       S  0.90743444  0.28257820  0.49761503    -0.24900
H1653       H  0.89702213  0.25495845  0.54945914     0.20000
S1654       S  0.98247174  0.26608893  0.58389272    -0.30600
H1655       H  0.99300279  0.29424453  0.53238211     0.10400
C1656       C  0.98492797  0.33560726  0.49847816     0.03600
C1657       C  0.99621930  0.35244396  0.97502481    -0.12900
C1658       C  0.99229426  0.34242127  0.94745328    -0.08600
C1659       C  0.97731794  0.31485072  0.94300589     0.07000
C1660       C  0.96586134  0.29810989  0.96611448    -0.13700
S1661       S  0.98812612  0.34872496  0.53373122    -0.30600
H1662       H  0.00750686  0.37356472  0.97839983     0.11300
S1663       S  0.97249784  0.29982892  0.90865471    -0.27700
H1664       H  0.95416217  0.27699324  0.96276826     0.08500
H1665       H  0.96312324  0.24103004  0.59342299     0.26900
H1666       H  0.00589402  0.37523589  0.52702305     0.21700
H1667       H  0.99739099  0.31855267  0.89809806     0.27000
H1668       H  0.92584291  0.30832712  0.48908059     0.15900
C1669       C  0.33148348  0.93689485  0.89429685    -0.11400
C1670       C  0.35095504  0.93980156  0.87509004     0.15100
C1671       C  0.34500539  0.91985250  0.85488356     0.02000
C1672       C  0.31972984  0.89757482  0.85428104    -0.15800
C1673       C  0.30007437  0.89455168  0.87347405    -0.10600
C1674       C  0.30609118  0.91481353  0.89342484     0.08800
C1675       C  0.37650549  0.96478477  0.87539105     0.09800
S1676       S  0.36837595  0.92194390  0.82871120    -0.24900
H1677       H  0.31546430  0.88231376  0.83878195     0.20000
S1678       S  0.28192641  0.91497957  0.91673154    -0.30600
H1679       H  0.33583588  0.95250039  0.90938300     0.10400
C1680       C  0.38024416  0.98665601  0.85946436     0.03600
C1681       C  0.40450182  0.01026425  0.86082635    -0.12900
C1682       C  0.42517991  0.01247220  0.87779364    -0.08600
C1683       C  0.42113003  0.99056260  0.89415197     0.07000
C1684       C  0.39692121  0.96696798  0.89265489    -0.13700
S1685       S  0.35403770  0.98445778  0.83747491    -0.30600
H1686       H  0.40751870  0.02702085  0.84836301     0.11300
S1687       S  0.44545501  0.99178463  0.91834088    -0.27700
H1688       H  0.39381855  0.95025641  0.90529307     0.08500
H1689       H  0.26105838  0.90323250  0.89723960     0.26900
H1690       H  0.36754161  0.01065733  0.82778175     0.21700
H1691       H  0.45457054  0.01791609  0.92714711     0.27000
H1692       H  0.39135275  0.93803364  0.84423563     0.15900
C1693       C  0.21352335  0.80965945  0.96854717    -0.11400
C1694       C  0.20425220  0.78258761  0.96557759     0.15100
C1695       C  0.20461825  0.77228853  0.93876190     0.02000
C1696       C  0.21556990  0.78943428  0.91595823    -0.15800
C1697       C  0.22557071  0.81673401  0.91889016    -0.10600
C1698       C  0.22374134  0.82673809  0.94546261     0.08800
C1699       C  0.19475730  0.76565303  0.99085640     0.09800
S1700       S  0.19175937  0.73756827  0.93223118    -0.24900
H1701       H  0.21651735  0.78130251  0.89571869     0.20000
S1702       S  0.23264022  0.86056022  0.95113549    -0.30600
H1703       H  0.21017911  0.81778407  0.48940378     0.10400
C1704       C  0.20589236  0.75434664  0.50228412     0.03600
C1705       C  0.19581676  0.73741713  0.52551077    -0.12900
C1706       C  0.17189539  0.73189453  0.53820350    -0.08600
C1707       C  0.15767753  0.74350249  0.52708359     0.07000
C1708       C  0.16782640  0.76049851  0.50392424    -0.13700
S1709       S  0.23729400  0.76185370  0.48731923    -0.30600
H1710       H  0.20679831  0.72867303  0.53410447     0.11300
S1711       S  0.12592071  0.73638356  0.54040150    -0.27700
H1712       H  0.15938790  0.76822378  0.99361179     0.08500
H1713       H  0.22433496  0.86375659  0.92435254     0.26900
H1714       H  0.24300755  0.74714431  0.50655376     0.21700
H1715       H  0.11677824  0.70953373  0.54566928     0.27000
H1716       H  0.17255646  0.72832424  0.95359378     0.15900
C1717       C  0.17765484  0.74976566  0.74975609    -0.11400
C1718       C  0.19307436  0.77663743  0.74338333     0.15100
C1719       C  0.19714221  0.78473044  0.71492038     0.02000
C1720       C  0.18639845  0.76568784  0.69347589    -0.15800
C1721       C  0.17150202  0.73869462  0.69988754    -0.10600
C1722       C  0.16652269  0.73081319  0.72846663     0.08800
C1723       C  0.20575868  0.79520525  0.76711853     0.09800
S1724       S  0.21617431  0.81888335  0.70469711    -0.24900
H1725       H  0.19023932  0.77194134  0.67165652     0.20000
S1726       S  0.14577149  0.69699081  0.73929432    -0.30600
H1727       H  0.17435216  0.74350292  0.77159964     0.10400
C1728       C  0.19066114  0.79995663  0.78693990     0.03600
C1729       C  0.20279578  0.81440065  0.81143543    -0.12900
C1730       C  0.22969751  0.82403686  0.81662640    -0.08600
C1731       C  0.24486386  0.81956292  0.79647448     0.07000
C1732       C  0.23282425  0.80558919  0.77176089    -0.13700
S1733       S  0.15587072  0.78731467  0.78115321    -0.30600
H1734       H  0.19121243  0.81781784  0.82692362     0.11300
S1735       S  0.27889205  0.82891055  0.80215637    -0.27700
H1736       H  0.24428906  0.80142545  0.75679466     0.08500
H1737       H  0.12784388  0.69010558  0.71679013     0.26900
H1738       H  0.15072992  0.79563412  0.80705372     0.21700
H1739       H  0.27590088  0.82240536  0.83097784     0.27000
H1740       H  0.21060314  0.82918997  0.72887087     0.15900
C1741       C  0.46734067  0.30743665  0.61169550    -0.11400
C1742       C  0.45060903  0.31248362  0.62845917     0.15100
C1743       C  0.43193796  0.29240227  0.64607666     0.02000
C1744       C  0.43019074  0.26766853  0.64629148    -0.15800
C1745       C  0.44682054  0.26252043  0.62941783    -0.10600
C1746       C  0.46589812  0.28285348  0.61223538     0.08800
C1747       C  0.45268394  0.33866451  0.62661030     0.09800
S1748       S  0.40970169  0.29704669  0.66855874    -0.24900
H1749       H  0.41558128  0.25222703  0.65959104     0.20000
S1750       S  0.48960035  0.27910721  0.59136247    -0.30600
H1751       H  0.48181294  0.32289146  0.59829817     0.10400
C1752       C  0.47404529  0.36121701  0.63871974     0.03600
C1753       C  0.47504282  0.38558836  0.63671493    -0.12900
C1754       C  0.45518467  0.38796735  0.62266937    -0.08600
C1755       C  0.43419745  0.36532792  0.60982547     0.07000
C1756       C  0.43300800  0.34094701  0.61229984    -0.13700
S1757       S  0.49954010  0.35877405  0.65756722    -0.30600
H1758       H  0.49112385  0.40279687  0.64663548     0.11300
S1759       S  0.40906735  0.36631004  0.58883889    -0.27700
H1760       H  0.41683880  0.32363540  0.60256554     0.08500
H1761       H  0.49269316  0.26262854  0.61063612     0.26900
H1762       H  0.51511808  0.38571723  0.66425203     0.21700
H1763       H  0.42645889  0.39048391  0.57584658     0.27000
H1764       H  0.42672802  0.32405976  0.67372337     0.15900
C1765       C  0.47183619  0.14023606  0.74793572    -0.11400
C1766       C  0.45914607  0.15454619  0.75422502     0.15100
C1767       C  0.45302708  0.15684469  0.78254997     0.02000
C1768       C  0.46069377  0.14563787  0.80396728    -0.15800
C1769       C  0.47453559  0.13238686  0.79778986    -0.10600
C1770       C  0.47926104  0.12885379  0.76929381     0.08800
C1771       C  0.45329543  0.16723755  0.73064245     0.09800
S1772       S  0.43564690  0.17373644  0.79302518    -0.24900
H1773       H  0.45669074  0.14815544  0.82573206     0.20000
S1774       S  0.49390792  0.10939689  0.75873529    -0.30600
H1775       H  0.47601894  0.13796153  0.72615578     0.10400
C1776       C  0.47170069  0.19311444  0.72224811     0.03600
C1777       C  0.46642865  0.20390538  0.69848999    -0.12900
C1778       C  0.44324010  0.18920021  0.68279445    -0.08600
C1779       C  0.42434224  0.16363679  0.69192038     0.07000
C1780       C  0.42967860  0.15283774  0.71561267    -0.13700
S1781       S  0.50225785  0.21204423  0.74132699    -0.30600
H1782       H  0.48091473  0.22344877  0.69137350     0.11300
S1783       S  0.39300882  0.14400273  0.67459942    -0.27700
H1784       H  0.41543512  0.13303060  0.72229536     0.08500
H1785       H  0.48279615  0.09099889  0.78078490     0.26900
H1786       H  0.51101920  0.23580479  0.72656070     0.21700
H1787       H  0.39130046  0.16527255  0.66328478     0.27000
H1788       H  0.44019223  0.18908826  0.76878076     0.15900
C1789       C  0.43798271  0.14945882  0.55167102    -0.11400
C1790       C  0.45217971  0.16639659  0.52947563     0.15100
C1791       C  0.45982299  0.19333718  0.53137875     0.02000
C1792       C  0.45462643  0.20302034  0.55609879    -0.15800
C1793       C  0.44152436  0.18639555  0.57911423    -0.10600
C1794       C  0.43225053  0.15899890  0.57620629     0.08800
C1795       C  0.46043327  0.15574573  0.50568803     0.09800
S1796       S  0.47141007  0.21472992  0.00146999    -0.24900
H1797       H  0.46171890  0.22398256  0.55757537     0.20000
S1798       S  0.41269415  0.13497919  0.60253439    -0.30600
H1799       H  0.43168093  0.12865559  0.55003191     0.10400
C1800       C  0.48494258  0.16206827  0.00091620     0.03600
C1801       C  0.49290667  0.15202250  0.97847738    -0.12900
C1802       C  0.47465717  0.13425461  0.95870690    -0.08600
C1803       C  0.44760433  0.12639092  0.96210694     0.07000
C1804       C  0.43982349  0.13703214  0.98414699    -0.13700
S1805       S  0.51062081  0.18013719  0.53024081    -0.30600
H1806       H  0.51358408  0.15807983  0.97643130     0.11300
S1807       S  0.42175379  0.10192794  0.94023634    -0.27700
H1808       H  0.41914830  0.13097824  0.98659095     0.08500
H1809       H  0.39767404  0.14699440  0.60904197     0.26900
H1810       H  0.53121949  0.17677266  0.51970445     0.21700
H1811       H  0.43120245  0.08408159  0.94183875     0.27000
H1812       H  0.46178395  0.19632807  0.97925275     0.15900
loop_ 
_geom_bond_atom_site_label_1 
_geom_bond_atom_site_label_2 
_geom_bond_distance 
_geom_bond_site_symmetry_2 
_ccdc_geom_bond_type 
C1            N2   1.358       .  A
C1            N6   1.358       .  A
C1          C839   1.477       .  S
N2            C3   1.359       .  A
C3            N4   1.359       .  A
C3          C872   1.476       .  S
N4            C5   1.360       .  A
C5            N6   1.360       .  A
C5          C887   1.492       .  S
C7            N8   1.359       .  A
C7           N12   1.364       .  A
C7          C767   1.482       .  S
N8            C9   1.356       .  A
C9           N10   1.354       .  A
C9          C824   1.474       .  S
N10          C11   1.357       .  A
C11          N12   1.364       .  A
C11         C791   1.486       .  S
C13          N14   1.360       .  A
C13          N18   1.357       .  A
C13         C695   1.468       .  S
N14          C15   1.359       .  A
C15          N16   1.356       .  A
C15         C728   1.472       .  S
N16          C17   1.355       .  A
C17          N18   1.355       .  A
C17         C743   1.469       .  S
C19          N20   1.360       .  A
C19          N24   1.360       .  A
C19         C623   1.481       .  S
N20          C21   1.358       .  A
C21          N22   1.355       .  A
C21         C671   1.483       .  S
N22          C23   1.355       .  A
C23          N24   1.359       .  A
C23         C656   1.485       .  S
C25          N26   1.363       .  A
C25          N30   1.362       .  A
C25         C551   1.486       .  S
N26          C27   1.359       .  A
C27          N28   1.352       .  A
C27         C584   1.473       .  S
N28          C29   1.353       .  A
C29          N30   1.358       .  A
C29         C608   1.480       .  S
C31          N32   1.359       .  A
C31          N36   1.358       .  A
C31         C488   1.478       .  S
N32          C33   1.359       .  A
C33          N34   1.357       .  A
C33         C536   1.483       .  S
N34          C35   1.358       .  A
C35          N36   1.356       .  A
C35         C512   1.485       .  S
Zn37         O41   1.949       .  S
Zn37         O42   2.012       .  S
Zn37         O46   2.002       .  S
Zn37         O53   2.003       .  S
Zn38         O41   1.959       .  S
Zn38         O43   2.019       .  S
Zn38         O45   2.026       .  S
Zn38         O49   2.020       .  S
Zn39         O41   1.948   1_655  S
Zn39         O44   2.001       .  S
Zn39         O47   1.989       .  S
Zn39         O50   2.009       .  S
Zn40         O41   1.957       .  S
Zn40         O48   2.023   1_455  S
Zn40         O51   2.007       .  S
Zn40         O52   2.011       .  S
O42          C54   1.272       .  A
O43          C55   1.274       .  A
O44          C56   1.271   1_655  A
O45          C54   1.274       .  A
O46          C56   1.272       .  A
O47          C55   1.271   1_655  A
O48          C57   1.273       .  A
O49          C58   1.275       .  A
O50          C57   1.272       .  A
O51          C58   1.273       .  A
O52          C59   1.274       .  A
O53          C59   1.271       .  A
C54         C479   1.481       .  S
C55         C719   1.477   1_455  S
C56         C752   1.472   1_455  S
C57         C416   1.483       .  S
C58         C464   1.482       .  S
C59         C440   1.483       .  S
Zn60         O64   1.943       .  S
Zn60         O65   1.992       .  S
Zn60         O69   1.991       .  S
Zn60         O76   1.999       .  S
Zn61         O64   1.959       .  S
Zn61         O66   2.023       .  S
Zn61         O68   2.015       .  S
Zn61         O72   2.022       .  S
Zn62         O64   1.957       .  S
Zn62         O67   2.030       .  S
Zn62         O70   2.007       .  S
Zn62         O73   2.021       .  S
Zn63         O64   1.948       .  S
Zn63         O71   2.001       .  S
Zn63         O74   2.003       .  S
Zn63         O75   2.005       .  S
O65          C77   1.270       .  A
O66          C78   1.275       .  A
O67          C79   1.274       .  A
O68          C77   1.273       .  A
O69          C79   1.271       .  A
O70          C78   1.273       .  A
O71          C80   1.272       .  A
O72          C81   1.275       .  A
O73          C80   1.274       .  A
O74          C81   1.271       .  A
O75          C82   1.272       .  A
O76          C82   1.271       .  A
C77         C455   1.477       .  S
C78         C560   1.477       .  S
C79         C815   1.475       .  S
C80         C800   1.475       .  S
C81         C431   1.486       .  S
C82         C392   1.475       .  S
Zn83         O87   1.963       .  S
Zn83         O88   2.025       .  S
Zn83         O92   2.032       .  S
Zn83         O99   2.035       .  S
Zn84         O87   1.947       .  S
Zn84         O89   2.007       .  S
Zn84         O91   1.999       .  S
Zn84         O95   2.005       .  S
Zn85         O87   1.954       .  S
Zn85         O90   2.006       .  S
Zn85         O93   2.025       .  S
Zn85         O96   2.008       .  S
Zn86         O87   1.958       .  S
Zn86         O94   2.023       .  S
Zn86         O97   2.034       .  S
Zn86         O98   2.019       .  S
O88         C100   1.275       .  A
O89         C101   1.272       .  A
O90         C102   1.272       .  A
O91         C100   1.271       .  A
O92         C102   1.276       .  A
O93         C101   1.274       .  A
O94         C103   1.274       .  A
O95         C104   1.273       .  A
O96         C103   1.273       .  A
O97         C104   1.274       .  A
O98         C105   1.275       .  A
O99         C105   1.276       .  A
C100        C335   1.485       .  S
C101        C320   1.480       .  S
C102        C359   1.487       .  S
C103        C863   1.474       .  S
C104        C896   1.494       .  S
C105        C776   1.487       .  S
Zn106       O110   1.959   1_545  S
Zn106       O111   2.011       .  S
Zn106       O115   2.021       .  S
Zn106       O122   2.018       .  S
Zn107       O110   1.966       .  S
Zn107       O112   2.018       .  S
Zn107       O114   2.015   1_565  S
Zn107       O118   2.023       .  S
Zn108       O110   1.954       .  S
Zn108       O113   2.013       .  S
Zn108       O116   2.005       .  S
Zn108       O119   2.015       .  S
Zn109       O110   1.952       .  S
Zn109       O117   2.013       .  S
Zn109       O120   2.008       .  S
Zn109       O121   2.015       .  S
O111        C123   1.273       .  A
O112        C124   1.273       .  A
O113        C125   1.273   1_565  A
O114        C123   1.274       .  A
O115        C125   1.274       .  A
O116        C124   1.273       .  A
O117        C126   1.272       .  A
O118        C127   1.274       .  A
O119        C126   1.273       .  A
O120        C127   1.273       .  A
O121        C128   1.273   1_565  A
O122        C128   1.274       .  A
C123        C704   1.479       .  S
C124        C680   1.479       .  S
C125        C368   1.481       .  S
C126        C287   1.485       .  S
C127        C647   1.483       .  S
C128        C344   1.480       .  S
C129        N130   1.359       .  A
C129        N134   1.358       .  A
C129        C311   1.481       .  S
N130        C131   1.359       .  A
C131        N132   1.358       .  A
C131        C407   1.480       .  S
N132        C133   1.357       .  A
C133        N134   1.357       .  A
C133        C263   1.478       .  S
C135        N136   1.357       .  A
C135        N140   1.356       .  A
C135        C296   1.477       .  S
N136        C137   1.357       .  A
C137        N138   1.357       .  A
C137        C239   1.474       .  S
N138        C139   1.356       .  A
C139        N140   1.358       .  A
C139        C383   1.484       .  S
Zn141       O145   1.948       .  S
Zn141       O146   2.016       .  S
Zn141       O150   2.003       .  S
Zn141       O157   2.010       .  S
Zn142       O145   1.942       .  S
Zn142       O147   1.999       .  S
Zn142       O149   2.001       .  S
Zn142       O153   1.999       .  S
Zn143       O145   1.955       .  S
Zn143       O148   2.019       .  S
Zn143       O151   2.020       .  S
Zn143       O154   2.022       .  S
Zn144       O145   1.951       .  S
Zn144       O152   2.013       .  S
Zn144       O155   2.010       .  S
Zn144       O156   2.007       .  S
O146        C158   1.273       .  A
O147        C159   1.273       .  A
O148        C160   1.273       .  A
O149        C158   1.271       .  A
O150        C160   1.274       .  A
O151        C159   1.273       .  A
O152        C161   1.274       .  A
O153        C162   1.272       .  A
O154        C161   1.274       .  A
O155        C162   1.272       .  A
O156        C163   1.272       .  A
O157        C163   1.273       .  A
C158        C248   1.473       .  S
C159        C527   1.482       .  S
C160        C503   1.491       .  S
C161        C848   1.483       .  S
C162        C191   1.473       .  S
C163        C215   1.479       .  S
Zn164       O168   1.946       .  S
Zn164       O169   1.993       .  S
Zn164       O173   1.998       .  S
Zn164       O180   2.000       .  S
Zn165       O168   1.953       .  S
Zn165       O170   2.011       .  S
Zn165       O172   2.001       .  S
Zn165       O176   2.017       .  S
Zn166       O168   1.957       .  S
Zn166       O171   2.019       .  S
Zn166       O174   2.017       .  S
Zn166       O177   2.012       .  S
Zn167       O168   1.955       .  S
Zn167       O175   1.997       .  S
Zn167       O178   2.023       .  S
Zn167       O179   2.021       .  S
O169        C181   1.270       .  A
O170        C182   1.273       .  A
O171        C183   1.272       .  A
O172        C181   1.272       .  A
O173        C183   1.271       .  A
O174        C182   1.274       .  A
O175        C184   1.271       .  A
O176        C185   1.272       .  A
O177        C184   1.274       .  A
O178        C185   1.273       .  A
O179        C186   1.273       .  A
O180        C186   1.272       .  A
C181        C599   1.476       .  S
C182        C632   1.480       .  S
C183        C575   1.484       .  S
C184        C200   1.478       .  S
C185        C224   1.472       .  S
C186        C272   1.481       .  S
C187        C188   1.400       .  A
C187        C192   1.395       .  A
C187        H197   1.084       .  S
C188        C193   1.473       .  S
C188        C189   1.410       .  A
C189        C190   1.398       .  A
C189        S194   1.804       .  S
C190        C191   1.404       .  A
C190        H195   1.084       .  S
C191        C192   1.415       .  A
C192        S196   1.804       .  S
C193        C198   1.407       .  A
C193        C202   1.399       .  A
S194        H210   1.406       .  S
S196        H207   1.407       .  S
C198        C199   1.400       .  A
C198        S203   1.806       .  S
C199        C200   1.407       .  A
C199        H204   1.083       .  S
C200        C201   1.417       .  A
C201        C202   1.395       .  A
C201        S205   1.803       .  S
C202        H206   1.084       .  S
S203        H208   1.407       .  S
S205        H209   1.406       .  S
C211        C212   1.401       .  A
C211        C216   1.400       .  A
C211        H221   1.084       .  S
C212       C1123   1.477   1_554  S
C212        C213   1.410       .  A
C213        C214   1.397       .  A
C213       S1124   1.804       .  S
C214        C215   1.405       .  A
C214        H219   1.084       .  S
C215        C216   1.416       .  A
C216        S220   1.803       .  S
C217       C1118   1.479       .  S
C217        C222   1.410       .  A
C217        C226   1.402       .  A
S218       C1119   1.804       .  S
S218        H234   1.406       .  S
S220        H231   1.407       .  S
C222        C223   1.404       .  A
C222       S1133   1.806       .  S
C223        C224   1.403       .  A
C223        H228   1.083       .  S
C224        C225   1.411       .  A
C225        C226   1.398       .  A
C225        S229   1.803       .  S
C226        H230   1.084       .  S
S227       C1128   1.806   1_554  S
S227        H232   1.407       .  S
S229        H233   1.406       .  S
C235        C236   1.400       .  A
C235        C240   1.396       .  A
C235        H245   1.084       .  S
C236        C241   1.472       .  S
C236        C237   1.410       .  A
C237        C238   1.398       .  A
C237        S242   1.804       .  S
C238        C239   1.405       .  A
C238        H243   1.084       .  S
C239        C240   1.414       .  A
C240        S244   1.803       .  S
C241        C246   1.407       .  A
C241        C250   1.400       .  A
S242        H258   1.405       .  S
S244        H255   1.407       .  S
C246        C247   1.401       .  A
C246        S251   1.806       .  S
C247        C248   1.405       .  A
C247        H252   1.083       .  S
C248        C249   1.413       .  A
C249        C250   1.398       .  A
C249        S253   1.803       .  S
C250        H254   1.084       .  S
S251        H256   1.407       .  S
S253        H257   1.407       .  S
C259        C260   1.402       .  A
C259        C264   1.398       .  A
C259        H269   1.084       .  S
C260        C265   1.478       .  S
C260        C261   1.411       .  A
C261        C262   1.398       .  A
C261        S266   1.804       .  S
C262        C263   1.405       .  A
C262        H267   1.084       .  S
C263        C264   1.415       .  A
C264        S268   1.803       .  S
C265        C270   1.407       .  A
C265        C274   1.402       .  A
S266        H282   1.406       .  S
S268        H279   1.407       .  S
C270        C271   1.400       .  A
C270        S275   1.807       .  S
C271        C272   1.406       .  A
C271        H276   1.083       .  S
C272        C273   1.417       .  A
C273        C274   1.400       .  A
C273        S277   1.803       .  S
C274        H278   1.084       .  S
S275        H280   1.407       .  S
S277        H281   1.407       .  S
C283        C284   1.400       .  A
C283        C288   1.398       .  A
C283        H293   1.084       .  S
C284        C289   1.475       .  S
C284        C285   1.410       .  A
C285        C286   1.398       .  A
C285        S290   1.805       .  S
C286        C287   1.407       .  A
C286        H291   1.084       .  S
C287        C288   1.418       .  A
C288        S292   1.800       .  S
C289        C294   1.407       .  A
C289        C298   1.400       .  A
S290        H306   1.405       .  S
S292        H303   1.406       .  S
C294        C295   1.401       .  A
C294        S299   1.806       .  S
C295        C296   1.406       .  A
C295        H300   1.083       .  S
C296        C297   1.415       .  A
C297        C298   1.397       .  A
C297        S301   1.803       .  S
C298        H302   1.084       .  S
S299        H304   1.407       .  S
S301        H305   1.407       .  S
C307        C308   1.401       .  A
C307        C312   1.400       .  A
C307        H317   1.084       .  S
C308        C313   1.476       .  S
C308        C309   1.411       .  A
C309        C310   1.398       .  A
C309        S314   1.806       .  S
C310        C311   1.406       .  A
C310        H315   1.084       .  S
C311        C312   1.416       .  A
C312        S316   1.803       .  S
C313        C318   1.408       .  A
C313        C322   1.400       .  A
S314        H330   1.403       .  S
S316        H327   1.407       .  S
C318        C319   1.404       .  A
C318        S323   1.806       .  S
C319        C320   1.406       .  A
C319        H324   1.083       .  S
C320        C321   1.417       .  A
C321        C322   1.398       .  A
C321        S325   1.804       .  S
C322        H326   1.084       .  S
S323        H328   1.407       .  S
S325        H329   1.407       .  S
C331        C332   1.401       .  A
C331        C336   1.398       .  A
C331        H341   1.084       .  S
C332       C1243   1.480       .  S
C332        C333   1.411       .  A
C333        C334   1.399       .  A
C333        S338   1.804       .  S
C334        C335   1.407       .  A
C334        H339   1.084       .  S
C335        C336   1.418       .  A
C336        S340   1.800       .  S
C337       C1238   1.479   1_554  S
C337        C342   1.410       .  A
C337        C346   1.399       .  A
S338        H354   1.406       .  S
S340        H351   1.408       .  S
C342        C343   1.404       .  A
C342       S1253   1.807       .  S
C343        C344   1.406       .  A
C343        H348   1.083       .  S
C344        C345   1.415       .  A
C345        C346   1.397       .  A
C345        S349   1.800   1_545  S
C346        H350   1.084       .  S
S347       C1248   1.807       .  S
S347        H352   1.407       .  S
S349        H353   1.407       .  S
C355        C356   1.401       .  A
C355        C360   1.400       .  A
C355        H365   1.084       .  S
C356        C361   1.482       .  S
C356        C357   1.411       .  A
C357        C358   1.399       .  A
C357        S362   1.804   1_545  S
C358        C359   1.406       .  A
C358        H363   1.084       .  S
C359        C360   1.420       .  A
C360        S364   1.803       .  S
C361        C366   1.409       .  A
C361        C370   1.402       .  A
S362        H378   1.406   1_565  S
S364        H375   1.408       .  S
C366        C367   1.403       .  A
C366        S371   1.806       .  S
C367        C368   1.405       .  A
C367        H372   1.083       .  S
C368        C369   1.414       .  A
C369        C370   1.403       .  A
C369        S373   1.808   1_545  S
C370        H374   1.083       .  S
S371        H376   1.407       .  S
S373        H377   1.407   1_565  S
C379        C380   1.399       .  A
C379        C384   1.398       .  A
C379        H389   1.084       .  S
C380        C385   1.472       .  S
C380        C381   1.408       .  A
C381        C382   1.395       .  A
C381        S386   1.805       .  S
C382        C383   1.407       .  A
C382        H387   1.083       .  S
C383        C384   1.420       .  A
C384        S388   1.802       .  S
C385        C390   1.407       .  A
C385        C394   1.399       .  A
S386        H402   1.405       .  S
S388        H399   1.407       .  S
C390        C391   1.401       .  A
C390        S395   1.806       .  S
C391        C392   1.406       .  A
C391        H396   1.083       .  S
C392        C393   1.416       .  A
C393        C394   1.395       .  A
C393        S397   1.804       .  S
C394        H398   1.084       .  S
S395        H400   1.407       .  S
S397        H401   1.407       .  S
C403        C404   1.403       .  A
C403        C408   1.399       .  A
C403        H413   1.084       .  S
C404        C409   1.481       .  S
C404        C405   1.411       .  A
C405        C406   1.399       .  A
C405        S410   1.804       .  S
C406        C407   1.406       .  A
C406        H411   1.084       .  S
C407        C408   1.415       .  A
C408        S412   1.803       .  S
C409        C414   1.408       .  A
C409        C418   1.402       .  A
S410        H426   1.406       .  S
S412        H423   1.407       .  S
C414        C415   1.402       .  A
C414        S419   1.807       .  S
C415        C416   1.407       .  A
C415        H420   1.083       .  S
C416        C417   1.417       .  A
C417        C418   1.400       .  A
C417        S421   1.802       .  S
C418        H422   1.084       .  S
S419        H424   1.407       .  S
S421        H425   1.407       .  S
C427        C428   1.399       .  A
C427        C432   1.398       .  A
C427        H437   1.084       .  S
C428       C1339   1.475   1_554  S
C428        C429   1.410       .  A
C429        C430   1.398       .  A
C429       S1340   1.805       .  S
C430        C431   1.407       .  A
C430        H435   1.084       .  S
C431        C432   1.420       .  A
C432        S436   1.803       .  S
C433       C1334   1.474       .  S
C433        C438   1.406       .  A
C433        C442   1.399       .  A
S434       C1335   1.805       .  S
S434        H450   1.405       .  S
S436        H447   1.408       .  S
C438        C439   1.401       .  A
C438        S443   1.807       .  S
C439        C440   1.407       .  A
C439        H444   1.083       .  S
C440        C441   1.418       .  A
C441        C442   1.398       .  A
C441        S445   1.800       .  S
C442       H1352   1.084       .  S
S443        H448   1.407       .  S
S445        H449   1.408       .  S
H446       C1348   1.084   1_554  S
C451        C452   1.399       .  A
C451        C456   1.396       .  A
C451        H461   1.084       .  S
C452        C457   1.474       .  S
C452        C453   1.411       .  A
C453        C454   1.399       .  A
C453        S458   1.804       .  S
C454        C455   1.405       .  A
C454        H459   1.084       .  S
C455        C456   1.417       .  A
C456        S460   1.804       .  S
C457        C462   1.407       .  A
C457        C466   1.399       .  A
S458        H474   1.405       .  S
S460        H471   1.408       .  S
C462        C463   1.401       .  A
C462        S467   1.807       .  S
C463        C464   1.407       .  A
C463        H468   1.083       .  S
C464        C465   1.419       .  A
C465        C466   1.398       .  A
C465        S469   1.803       .  S
C466        H470   1.084       .  S
S467        H472   1.407       .  S
S469        H473   1.408       .  S
C475        C476   1.401       .  A
C475        C480   1.400       .  A
C475        H485   1.084       .  S
C476        C481   1.479       .  S
C476        C477   1.412       .  A
C477        C478   1.400       .  A
C477        S482   1.805       .  S
C478        C479   1.405       .  A
C478        H483   1.084       .  S
C479        C480   1.416       .  A
C480        S484   1.803       .  S
C481        C486   1.409       .  A
C481        C490   1.401       .  A
S482        H498   1.405       .  S
S484        H495   1.407       .  S
C486        C487   1.403       .  A
C486        S491   1.807       .  S
C487        C488   1.405       .  A
C487        H492   1.083       .  S
C488        C489   1.415       .  A
C489        C490   1.399       .  A
C489        S493   1.803       .  S
C490        H494   1.084       .  S
S491        H496   1.407       .  S
S493        H497   1.407       .  S
C499        C504   1.399       .  A
C499       C1406   1.400       .  A
C499       H1415   1.084       .  S
C500        C505   1.475       .  S
C500       C1405   1.399       .  A
C500       C1407   1.408       .  A
C501        C502   1.396       .  A
C501       C1406   1.408       .  A
C501        S506   1.805   1_554  S
C502        C503   1.410       .  A
C502        H507   1.083       .  S
C503        C504   1.421       .  A
C504        S508   1.800       .  S
C505        C510   1.407       .  A
C505        C514   1.399       .  A
S506       H1428   1.406       .  S
S508        H519   1.407       .  S
H509       C1405   1.084       .  S
C510        C511   1.400       .  A
C510        S515   1.808       .  S
C511        C512   1.407       .  A
C511        H516   1.082       .  S
C512        C513   1.418       .  A
C513        C514   1.398       .  A
C513        S517   1.799       .  S
C514       H1424   1.084       .  S
S515        H520   1.407       .  S
S517        H521   1.407       .  S
H518       C1420   1.084       .  S
H522       S1412   1.405       .  S
C523        C524   1.401       .  A
C523        C528   1.400       .  A
C523        H533   1.084       .  S
C524        C529   1.476       .  S
C524        C525   1.410       .  A
C525        C526   1.395       .  A
C525        S530   1.806       .  S
C526        C527   1.406       .  A
C526        H531   1.084       .  S
C527        C528   1.417       .  A
C528        S532   1.802       .  S
C529        C534   1.407       .  A
C529        C538   1.400       .  A
S530        H546   1.405       .  S
S532        H543   1.408       .  S
C534        C535   1.401       .  A
C534        S539   1.807       .  S
C535        C536   1.406       .  A
C535        H540   1.082       .  S
C536        C537   1.417       .  A
C537        C538   1.402       .  A
C537        S541   1.808       .  S
C538        H542   1.083       .  S
S539        H544   1.407       .  S
S541        H545   1.407       .  S
C547        C548   1.400       .  A
C547        C552   1.399       .  A
C547        H557   1.084       .  S
C548        C553   1.476   1_655  S
C548        C549   1.410       .  A
C549        C550   1.399       .  A
C549        S554   1.805       .  S
C550        C551   1.408       .  A
C550        H555   1.084       .  S
C551        C552   1.417       .  A
C552        S556   1.799       .  S
C553        C558   1.408       .  A
C553        C562   1.401       .  A
S554        H570   1.405       .  S
S556        H567   1.407       .  S
C558        C559   1.401       .  A
C558        S563   1.807       .  S
C559        C560   1.405       .  A
C559        H564   1.083       .  S
C560        C561   1.415       .  A
C561        C562   1.399       .  A
C561        S565   1.803       .  S
C562        H566   1.084   1_455  S
S563        H568   1.407       .  S
S565        H569   1.407       .  S
C571        C572   1.401       .  A
C571        C576   1.399       .  A
C571        H581   1.084       .  S
C572        C577   1.472       .  S
C572        C573   1.409       .  A
C573        C574   1.396       .  A
C573        S578   1.806       .  S
C574        C575   1.407       .  A
C574        H579   1.084       .  S
C575        C576   1.418       .  A
C576        S580   1.803       .  S
C577        C582   1.406       .  A
C577        C586   1.402       .  A
S578        H594   1.403       .  S
S580        H591   1.407       .  S
C582        C583   1.397       .  A
C582        S587   1.808       .  S
C583        C584   1.405       .  A
C583        H588   1.083       .  S
C584        C585   1.413       .  A
C585        C586   1.401       .  A
C585        S589   1.800       .  S
C586        H590   1.084       .  S
S587        H592   1.407       .  S
S589        H593   1.406       .  S
C595        C600   1.396       .  A
C595       C1502   1.399       .  A
C595       H1511   1.084       .  S
C596        C601   1.473   1_556  S
C596       C1501   1.399       .  A
C596       C1503   1.411       .  A
C597        C598   1.395       .  A
C597       C1502   1.410       .  A
C597        S602   1.805       .  S
C598        C599   1.405       .  A
C598        H603   1.084       .  S
C599        C600   1.417       .  A
C600        S604   1.804       .  S
C601        C606   1.406       .  A
C601        C610   1.401       .  A
S602       H1524   1.405       .  S
S604        H615   1.408       .  S
H605       C1501   1.084       .  S
C606        C607   1.396       .  A
C606        S611   1.809       .  S
C607        C608   1.408       .  A
C607        H612   1.082       .  S
C608        C609   1.415       .  A
C609        C610   1.400       .  A
C609        S613   1.801       .  S
C610       H1520   1.084       .  S
S611        H616   1.407       .  S
S613        H617   1.407       .  S
H614       C1516   1.084       .  S
H618       S1508   1.405       .  S
C619        C620   1.402       .  A
C619        C624   1.401       .  A
C619        H629   1.084       .  S
C620        C625   1.477       .  S
C620        C621   1.410       .  A
C621        C622   1.396       .  A
C621        S626   1.805       .  S
C622        C623   1.405       .  A
C622        H627   1.084       .  S
C623        C624   1.416       .  A
C624        S628   1.803       .  S
C625        C630   1.408       .  A
C625        C634   1.400       .  A
S626        H642   1.405       .  S
S628        H639   1.407       .  S
C630        C631   1.402       .  A
C630        S635   1.807       .  S
C631        C632   1.406       .  A
C631        H636   1.083       .  S
C632        C633   1.416       .  A
C633        C634   1.399       .  A
C633        S637   1.803       .  S
C634        H638   1.084       .  S
S635        H640   1.407       .  S
S637        H641   1.407       .  S
C643        C644   1.401       .  A
C643        C648   1.397       .  A
C643       H1559   1.084       .  S
C644       C1555   1.482   1_554  S
C644        C645   1.412       .  A
C645        C646   1.402       .  A
C645        S650   1.804       .  S
C646        C647   1.407       .  A
C646        H651   1.084       .  S
C647        C648   1.417       .  A
C648        S652   1.804       .  S
C649       C1550   1.479       .  S
C649        C654   1.408       .  A
C649        C658   1.400       .  A
S650       H1572   1.406       .  S
S652        H663   1.408       .  S
H653       C1549   1.084       .  S
C654        C655   1.402       .  A
C654       S1565   1.807       .  S
C655        C656   1.407       .  A
C655        H660   1.082       .  S
C656        C657   1.418       .  A
C657        C658   1.398       .  A
C657        S661   1.803       .  S
C658        H662   1.084       .  S
S659       C1560   1.807   1_554  S
S659       H1570   1.407   1_554  S
S661        H665   1.407       .  S
H664       S1565   1.407       .  S
H666       S1556   1.406       .  S
C667        C668   1.400       .  A
C667        C672   1.395       .  A
C667        H677   1.084       .  S
C668        C673   1.477       .  S
C668        C669   1.410       .  A
C669        C670   1.401       .  A
C669        S674   1.804       .  S
C670        C671   1.408       .  A
C670        H675   1.084       .  S
C671        C672   1.418       .  A
C672        S676   1.803       .  S
C673        C678   1.408       .  A
C673        C682   1.401       .  A
S674        H690   1.405       .  S
S676        H687   1.408       .  S
C678        C679   1.399       .  A
C678        S683   1.808       .  S
C679        C680   1.405       .  A
C679        H684   1.083       .  S
C680        C681   1.417       .  A
C681        C682   1.401       .  A
C681        S685   1.803       .  S
C682        H686   1.084       .  S
S683        H688   1.407       .  S
S685        H689   1.407   1_565  S
C691        C692   1.402       .  A
C691        C696   1.396       .  A
C691        H701   1.084       .  S
C692        C697   1.476       .  S
C692        C693   1.412       .  A
C693        C694   1.398       .  A
C693        S698   1.804       .  S
C694        C695   1.403       .  A
C694        H699   1.084       .  S
C695        C696   1.411       .  A
C696        S700   1.802       .  S
C697        C702   1.409       .  A
C697        C706   1.400       .  A
S698        H714   1.406       .  S
S700        H711   1.406       .  S
C702        C703   1.402       .  A
C702        S707   1.808       .  S
C703        C704   1.406       .  A
C703        H708   1.083       .  S
C704        C705   1.416       .  A
C705        C706   1.397       .  A
C705        S709   1.803       .  S
C706        H710   1.084       .  S
S707        H712   1.407       .  S
S709        H713   1.407       .  S
C715        C716   1.401       .  A
C715        C720   1.399   1_655  A
C715        H725   1.084   1_655  S
C716        C721   1.470       .  S
C716        C717   1.408       .  A
C717        C718   1.394       .  A
C717        S722   1.805       .  S
C718        C719   1.406       .  A
C718        H723   1.084       .  S
C719        C720   1.416   1_655  A
C720        S724   1.803       .  S
C721        C726   1.406       .  A
C721        C730   1.400       .  A
S722        H738   1.404       .  S
S724        H735   1.407       .  S
C726        C727   1.399       .  A
C726        S731   1.807       .  S
C727        C728   1.404       .  A
C727        H732   1.083       .  S
C728        C729   1.411       .  A
C729        C730   1.402       .  A
C729        S733   1.804       .  S
C730        H734   1.083       .  S
S731        H736   1.407       .  S
S733        H737   1.407       .  S
C739        C740   1.401       .  A
C739        C744   1.395       .  A
C739        H749   1.084       .  S
C740        C745   1.472   1_554  S
C740        C741   1.412       .  A
C741        C742   1.398       .  A
C741        S746   1.805   1_554  S
C742        C743   1.402       .  A
C742        H747   1.084       .  S
C743        C744   1.412       .  A
C744        S748   1.804       .  S
C745        C750   1.408       .  A
C745       C1660   1.402       .  A
S746        H762   1.405       .  S
S748        H759   1.407       .  S
C750       C1657   1.396       .  A
C750        S755   1.808   1_556  S
C751        C752   1.403       .  A
C751       C1656   1.397       .  A
C751        H756   1.083   1_655  S
C752        C753   1.415       .  A
C753        C754   1.399       .  A
C753        S757   1.803       .  S
C754       C1651   1.401       .  A
C754        H758   1.084       .  S
S755        H760   1.407   1_655  S
S757        H761   1.407       .  S
C763        C764   1.403       .  A
C763        C768   1.402       .  A
C763        H773   1.084       .  S
C764        C769   1.483       .  S
C764        C765   1.411       .  A
C765        C766   1.400       .  A
C765        S770   1.803       .  S
C766        C767   1.406       .  A
C766        H771   1.084       .  S
C767        C768   1.414       .  A
C768        S772   1.800       .  S
C769        C774   1.408       .  A
C769        C778   1.402       .  A
S770        H786   1.406       .  S
S772        H783   1.406       .  S
C774        C775   1.403   1_565  A
C774        S779   1.807       .  S
C775        C776   1.407       .  A
C775        H780   1.083       .  S
C776        C777   1.417   1_545  A
C777        C778   1.402       .  A
C777        S781   1.802       .  S
C778        H782   1.084       .  S
S779        H784   1.407   1_565  S
S781        H785   1.407   1_565  S
C787        C788   1.403       .  A
C787        C792   1.402       .  A
C787       H1703   1.084       .  S
C788        C793   1.480       .  S
C788        C789   1.411       .  A
C789        C790   1.396       .  A
C789        S794   1.805       .  S
C790        C791   1.407       .  A
C790        H795   1.084       .  S
C791        C792   1.415       .  A
C792        S796   1.798       .  S
C793       C1704   1.409       .  A
C793       C1708   1.402       .  A
S794        H810   1.405       .  S
S796        H807   1.407       .  S
H797       C1693   1.084       .  S
C798        C799   1.400       .  A
C798       C1699   1.409   1_554  A
C798        S803   1.807   1_554  S
C799        C800   1.405       .  A
C799        H804   1.083       .  S
C800        C801   1.414       .  A
C801        C802   1.399       .  A
C801        S805   1.804       .  S
C802       C1699   1.402   1_554  A
C802       H1712   1.084   1_554  S
S803        H808   1.407   1_556  S
S805        H809   1.407       .  S
H806       C1708   1.084       .  S
C811        C812   1.401       .  A
C811        C816   1.395       .  A
C811        H821   1.084       .  S
C812        C817   1.479       .  S
C812        C813   1.412       .  A
C813        C814   1.402       .  A
C813        S818   1.803       .  S
C814        C815   1.404       .  A
C814        H819   1.084       .  S
C815        C816   1.415       .  A
C816        S820   1.805       .  S
C817        C822   1.409       .  A
C817        C826   1.401       .  A
S818        H834   1.406       .  S
S820        H831   1.407       .  S
C822        C823   1.403       .  A
C822        S827   1.807       .  S
C823        C824   1.404       .  A
C823        H828   1.083       .  S
C824        C825   1.414       .  A
C825        C826   1.398       .  A
C825        S829   1.803       .  S
C826        H830   1.084       .  S
S827        H832   1.407       .  S
S829        H833   1.407       .  S
C835        C836   1.401       .  A
C835        C840   1.399       .  A
C835        H845   1.084       .  S
C836        C841   1.480       .  S
C836        C837   1.412       .  A
C837        C838   1.401       .  A
C837        S842   1.803       .  S
C838        C839   1.404       .  A
C838        H843   1.084       .  S
C839        C840   1.415       .  A
C840        S844   1.804       .  S
C841        C846   1.408       .  A
C841        C850   1.401       .  A
S842        H858   1.406       .  S
S844        H855   1.407       .  S
C846        C847   1.403       .  A
C846        S851   1.807       .  S
C847        C848   1.406       .  A
C847        H852   1.083       .  S
C848        C849   1.416       .  A
C849        C850   1.399       .  A
C849        S853   1.802       .  S
C850        H854   1.084       .  S
S851        H856   1.407       .  S
S853        H857   1.407       .  S
C859        C860   1.402       .  A
C859        C864   1.399       .  A
C859        H869   1.084       .  S
C860        C865   1.479       .  S
C860        C861   1.412       .  A
C861        C862   1.399       .  A
C861        S866   1.803       .  S
C862        C863   1.402       .  A
C862        H867   1.084       .  S
C863        C864   1.414       .  A
C864        S868   1.805       .  S
C865        C870   1.409       .  A
C865        C874   1.402       .  A
S866        H882   1.405       .  S
S868        H879   1.407       .  S
C870        C871   1.402       .  A
C870        S875   1.807       .  S
C871        C872   1.403       .  A
C871        H876   1.083       .  S
C872        C873   1.414       .  A
C873        C874   1.401       .  A
C873        S877   1.802       .  S
C874        H878   1.084       .  S
S875        H880   1.407       .  S
S877        H881   1.406       .  S
C883        C884   1.400       .  A
C883        C888   1.400       .  A
C883        H893   1.084       .  S
C884        C889   1.482       .  S
C884        C885   1.411       .  A
C885        C886   1.399       .  A
C885       S1796   1.804       .  S
C886        C887   1.409       .  A
C886        H891   1.083       .  S
C887        C888   1.419       .  A
C888        S892   1.800       .  S
C889       C1800   1.408       .  A
C889       C1804   1.401   1_554  A
S890       C1791   1.805       .  S
S890        H906   1.405       .  S
S892        H903   1.407       .  S
C894        C895   1.401       .  A
C894       C1795   1.407       .  A
C894       S1805   1.808       .  S
C895        C896   1.411       .  A
C895        H900   1.082       .  S
C896        C897   1.421       .  A
C897        C898   1.402       .  A
C897        S901   1.801       .  S
C898       C1795   1.400       .  A
C898        H902   1.084       .  S
S899       C1800   1.808       .  S
S899        H904   1.406       .  S
S901        H905   1.408       .  S
C907        N908   1.358       .  A
C907        N912   1.358       .  A
C907       C1745   1.476       .  S
N908        C909   1.358       .  A
C909        N910   1.358       .  A
C909       C1778   1.473       .  S
N910        C911   1.359       .  A
C911        N912   1.360       .  A
C911       C1793   1.490       .  S
C913        N914   1.361       .  A
C913        N918   1.365       .  A
C913       C1673   1.485       .  S
N914        C915   1.357       .  A
C915        N916   1.353       .  A
C915       C1730   1.475       .  S
N916        C917   1.356       .  A
C917        N918   1.363       .  A
C917       C1697   1.483       .  S
C919        N920   1.360       .  A
C919        N924   1.357       .  A
C919       C1601   1.468       .  S
N920        C921   1.359       .  A
C921        N922   1.356       .  A
C921       C1634   1.472       .  S
N922        C923   1.355       .  A
C923        N924   1.354       .  A
C923       C1649   1.468       .  S
C925        N926   1.360       .  A
C925        N930   1.359       .  A
C925       C1529   1.480       .  S
N926        C927   1.358       .  A
C927        N928   1.357       .  A
C927       C1577   1.486       .  S
N928        C929   1.357       .  A
C929        N930   1.360       .  A
C929       C1562   1.488       .  S
C931        N932   1.363       .  A
C931        N936   1.361       .  A
C931       C1457   1.486       .  S
N932        C933   1.360       .  A
C933        N934   1.352       .  A
C933       C1490   1.473       .  S
N934        C935   1.353       .  A
C935        N936   1.357       .  A
C935       C1514   1.479       .  S
C937        N938   1.359       .  A
C937        N942   1.358       .  A
C937       C1394   1.479       .  S
N938        C939   1.358       .  A
C939        N940   1.357       .  A
C939       C1442   1.481       .  S
N940        C941   1.357       .  A
C941        N942   1.357       .  A
C941       C1418   1.484       .  S
Zn943       O947   1.948       .  S
Zn943       O948   2.009       .  S
Zn943       O952   1.998       .  S
Zn943       O959   2.005       .  S
Zn944       O947   1.959       .  S
Zn944       O949   2.018       .  S
Zn944       O951   2.027       .  S
Zn944       O955   2.021       .  S
Zn945       O947   1.950   1_655  S
Zn945       O950   2.004       .  S
Zn945       O953   1.992       .  S
Zn945       O956   2.012       .  S
Zn946       O947   1.956       .  S
Zn946       O954   2.023   1_455  S
Zn946       O957   2.005       .  S
Zn946       O958   2.011       .  S
O948        C960   1.272       .  A
O949        C961   1.274       .  A
O950        C962   1.271   1_655  A
O951        C960   1.274       .  A
O952        C962   1.272       .  A
O953        C961   1.272   1_655  A
O954        C963   1.273       .  A
O955        C964   1.275       .  A
O956        C963   1.273       .  A
O957        C964   1.272       .  A
O958        C965   1.274       .  A
O959        C965   1.271       .  A
C960       C1385   1.481       .  S
C961       C1625   1.478   1_455  S
C962       C1658   1.472   1_455  S
C963       C1322   1.484       .  S
C964       C1370   1.482       .  S
C965       C1346   1.486       .  S
Zn966       O970   1.945       .  S
Zn966       O971   1.997       .  S
Zn966       O975   1.992       .  S
Zn966       O982   2.002       .  S
Zn967       O970   1.959       .  S
Zn967       O972   2.021       .  S
Zn967       O974   2.016       .  S
Zn967       O978   2.019       .  S
Zn968       O970   1.960       .  S
Zn968       O973   2.034       .  S
Zn968       O976   2.011       .  S
Zn968       O979   2.027       .  S
Zn969       O970   1.950       .  S
Zn969       O977   2.002       .  S
Zn969       O980   2.004       .  S
Zn969       O981   2.006       .  S
O971        C983   1.271       .  A
O972        C984   1.275       .  A
O973        C985   1.275       .  A
O974        C983   1.273       .  A
O975        C985   1.271       .  A
O976        C984   1.274       .  A
O977        C986   1.272       .  A
O978        C987   1.275       .  A
O979        C986   1.275       .  A
O980        C987   1.271       .  A
O981        C988   1.272       .  A
O982        C988   1.271       .  A
C983       C1361   1.478       .  S
C984       C1466   1.478       .  S
C985       C1721   1.477       .  S
C986       C1706   1.478       .  S
C987       C1337   1.484       .  S
C988       C1298   1.475       .  S
Zn989       O993   1.962       .  S
Zn989       O994   2.019       .  S
Zn989       O998   2.034       .  S
Zn989      O1005   2.027       .  S
Zn990       O993   1.952       .  S
Zn990       O995   2.008       .  S
Zn990       O997   2.006       .  S
Zn990      O1001   2.008       .  S
Zn991       O993   1.954       .  S
Zn991       O996   2.008       .  S
Zn991       O999   2.013       .  S
Zn991      O1002   2.005       .  S
Zn992       O993   1.962       .  S
Zn992      O1000   2.025       .  S
Zn992      O1003   2.036       .  S
Zn992      O1004   2.018       .  S
O994       C1006   1.274       .  A
O995       C1007   1.272       .  A
O996       C1008   1.271       .  A
O997       C1006   1.271       .  A
O998       C1008   1.276       .  A
O999       C1007   1.273       .  A
O1000      C1009   1.274       .  A
O1001      C1010   1.273       .  A
O1002      C1009   1.272       .  A
O1003      C1010   1.274       .  A
O1004      C1011   1.275       .  A
O1005      C1011   1.275       .  A
C1006      C1241   1.485       .  S
C1007      C1226   1.475       .  S
C1008      C1265   1.491       .  S
C1009      C1769   1.477       .  S
C1010      C1802   1.494       .  S
C1011      C1682   1.480       .  S
Zn1012     O1016   1.958   1_545  S
Zn1012     O1017   2.007       .  S
Zn1012     O1021   2.020       .  S
Zn1012     O1028   2.016       .  S
Zn1013     O1016   1.965       .  S
Zn1013     O1018   2.022       .  S
Zn1013     O1020   2.014   1_565  S
Zn1013     O1024   2.020       .  S
Zn1014     O1016   1.952       .  S
Zn1014     O1019   2.012       .  S
Zn1014     O1022   2.009       .  S
Zn1014     O1025   2.013       .  S
Zn1015     O1016   1.951       .  S
Zn1015     O1023   2.008       .  S
Zn1015     O1026   2.006       .  S
Zn1015     O1027   2.018       .  S
O1017      C1029   1.273       .  A
O1018      C1030   1.273       .  A
O1019      C1031   1.273   1_565  A
O1020      C1029   1.274       .  A
O1021      C1031   1.273       .  A
O1022      C1030   1.273       .  A
O1023      C1032   1.272       .  A
O1024      C1033   1.274       .  A
O1025      C1032   1.273       .  A
O1026      C1033   1.272       .  A
O1027      C1034   1.273   1_565  A
O1028      C1034   1.273       .  A
C1029      C1610   1.478       .  S
C1030      C1586   1.481       .  S
C1031      C1274   1.479       .  S
C1032      C1193   1.484       .  S
C1033      C1553   1.482       .  S
C1034      C1250   1.480       .  S
C1035      N1036   1.358       .  A
C1035      N1040   1.359       .  A
C1035      C1217   1.482       .  S
N1036      C1037   1.358       .  A
C1037      N1038   1.357       .  A
C1037      C1313   1.479       .  S
N1038      C1039   1.357       .  A
C1039      N1040   1.358       .  A
C1039      C1169   1.479       .  S
C1041      N1042   1.356       .  A
C1041      N1046   1.356       .  A
C1041      C1202   1.475       .  S
N1042      C1043   1.356       .  A
C1043      N1044   1.357       .  A
C1043      C1145   1.472       .  S
N1044      C1045   1.357       .  A
C1045      N1046   1.358       .  A
C1045      C1289   1.483       .  S
Zn1047     O1051   1.949       .  S
Zn1047     O1052   2.014       .  S
Zn1047     O1056   2.007       .  S
Zn1047     O1063   2.018       .  S
Zn1048     O1051   1.943       .  S
Zn1048     O1053   2.001       .  S
Zn1048     O1055   2.000       .  S
Zn1048     O1059   1.999       .  S
Zn1049     O1051   1.954       .  S
Zn1049     O1054   2.015       .  S
Zn1049     O1057   2.019       .  S
Zn1049     O1060   2.022       .  S
Zn1050     O1051   1.948       .  S
Zn1050     O1058   2.005       .  S
Zn1050     O1061   2.002       .  S
Zn1050     O1062   2.006       .  S
O1052      C1064   1.273       .  A
O1053      C1065   1.273       .  A
O1054      C1066   1.272       .  A
O1055      C1064   1.271       .  A
O1056      C1066   1.274       .  A
O1057      C1065   1.273       .  A
O1058      C1067   1.273       .  A
O1059      C1068   1.272       .  A
O1060      C1067   1.274       .  A
O1061      C1068   1.272       .  A
O1062      C1069   1.272       .  A
O1063      C1069   1.274       .  A
C1064      C1154   1.472       .  S
C1065      C1433   1.482       .  S
C1066      C1409   1.491       .  S
C1067      C1754   1.482       .  S
C1068      C1097   1.471       .  S
C1069      C1121   1.481       .  S
Zn1070     O1074   1.944       .  S
Zn1070     O1075   1.992       .  S
Zn1070     O1079   1.997       .  S
Zn1070     O1086   2.000       .  S
Zn1071     O1074   1.952       .  S
Zn1071     O1076   2.014       .  S
Zn1071     O1078   2.005       .  S
Zn1071     O1082   2.018       .  S
Zn1072     O1074   1.954       .  S
Zn1072     O1077   2.016       .  S
Zn1072     O1080   2.016       .  S
Zn1072     O1083   2.007       .  S
Zn1073     O1074   1.954       .  S
Zn1073     O1081   1.998       .  S
Zn1073     O1084   2.017       .  S
Zn1073     O1085   2.017       .  S
O1075      C1087   1.270       .  A
O1076      C1088   1.273       .  A
O1077      C1089   1.272       .  A
O1078      C1087   1.273       .  A
O1079      C1089   1.271       .  A
O1080      C1088   1.274       .  A
O1081      C1090   1.271       .  A
O1082      C1091   1.273       .  A
O1083      C1090   1.274       .  A
O1084      C1091   1.273       .  A
O1085      C1092   1.273       .  A
O1086      C1092   1.272       .  A
C1087      C1505   1.477       .  S
C1088      C1538   1.481       .  S
C1089      C1481   1.482       .  S
C1090      C1106   1.477       .  S
C1091      C1130   1.470       .  S
C1092      C1178   1.481       .  S
C1093      C1094   1.401       .  A
C1093      C1098   1.395       .  A
C1093      H1103   1.084       .  S
C1094      C1099   1.471       .  S
C1094      C1095   1.410       .  A
C1095      C1096   1.397       .  A
C1095      S1100   1.804       .  S
C1096      C1097   1.404       .  A
C1096      H1101   1.084       .  S
C1097      C1098   1.414       .  A
C1098      S1102   1.804       .  S
C1099      C1104   1.406       .  A
C1099      C1108   1.399       .  A
S1100      H1116   1.406       .  S
S1102      H1113   1.407       .  S
C1104      C1105   1.400       .  A
C1104      S1109   1.807       .  S
C1105      C1106   1.407       .  A
C1105      H1110   1.083       .  S
C1106      C1107   1.417       .  A
C1107      C1108   1.395       .  A
C1107      S1111   1.802       .  S
C1108      H1112   1.084       .  S
S1109      H1114   1.407       .  S
S1111      H1115   1.406       .  S
C1117      C1118   1.402       .  A
C1117      C1122   1.400       .  A
C1117      H1127   1.084       .  S
C1118      C1119   1.411       .  A
C1119      C1120   1.398       .  A
C1120      C1121   1.405       .  A
C1120      H1125   1.084       .  S
C1121      C1122   1.417       .  A
C1122      S1126   1.803       .  S
C1123      C1128   1.409       .  A
C1123      C1132   1.401       .  A
S1124      H1140   1.406       .  S
S1126      H1137   1.407       .  S
C1128      C1129   1.403       .  A
C1129      C1130   1.403       .  A
C1129      H1134   1.083       .  S
C1130      C1131   1.411       .  A
C1131      C1132   1.397       .  A
C1131      S1135   1.803       .  S
C1132      H1136   1.084       .  S
S1133      H1138   1.407       .  S
S1135      H1139   1.406       .  S
C1141      C1142   1.400       .  A
C1141      C1146   1.397       .  A
C1141      H1151   1.084       .  S
C1142      C1147   1.471       .  S
C1142      C1143   1.409       .  A
C1143      C1144   1.397       .  A
C1143      S1148   1.804       .  S
C1144      C1145   1.404       .  A
C1144      H1149   1.084       .  S
C1145      C1146   1.414       .  A
C1146      S1150   1.803       .  S
C1147      C1152   1.407       .  A
C1147      C1156   1.400       .  A
S1148      H1164   1.405       .  S
S1150      H1161   1.407       .  S
C1152      C1153   1.400       .  A
C1152      S1157   1.806       .  S
C1153      C1154   1.405       .  A
C1153      H1158   1.083       .  S
C1154      C1155   1.413       .  A
C1155      C1156   1.397       .  A
C1155      S1159   1.803       .  S
C1156      H1160   1.084       .  S
S1157      H1162   1.407       .  S
S1159      H1163   1.407       .  S
C1165      C1166   1.401       .  A
C1165      C1170   1.397       .  A
C1165      H1175   1.084       .  S
C1166      C1171   1.478       .  S
C1166      C1167   1.411       .  A
C1167      C1168   1.399       .  A
C1167      S1172   1.804       .  S
C1168      C1169   1.405       .  A
C1168      H1173   1.084       .  S
C1169      C1170   1.416       .  A
C1170      S1174   1.803       .  S
C1171      C1176   1.408       .  A
C1171      C1180   1.402       .  A
S1172      H1188   1.406       .  S
S1174      H1185   1.407       .  S
C1176      C1177   1.399       .  A
C1176      S1181   1.807       .  S
C1177      C1178   1.406       .  A
C1177      H1182   1.083       .  S
C1178      C1179   1.416       .  A
C1179      C1180   1.400       .  A
C1179      S1183   1.803       .  S
C1180      H1184   1.084       .  S
S1181      H1186   1.407       .  S
S1183      H1187   1.407       .  S
C1189      C1190   1.399       .  A
C1189      C1194   1.397       .  A
C1189      H1199   1.084       .  S
C1190      C1195   1.473       .  S
C1190      C1191   1.410       .  A
C1191      C1192   1.398       .  A
C1191      S1196   1.805       .  S
C1192      C1193   1.407       .  A
C1192      H1197   1.084       .  S
C1193      C1194   1.418       .  A
C1194      S1198   1.799       .  S
C1195      C1200   1.407       .  A
C1195      C1204   1.400       .  A
S1196      H1212   1.405       .  S
S1198      H1209   1.406       .  S
C1200      C1201   1.401       .  A
C1200      S1205   1.807       .  S
C1201      C1202   1.406       .  A
C1201      H1206   1.083       .  S
C1202      C1203   1.415       .  A
C1203      C1204   1.396       .  A
C1203      S1207   1.803       .  S
C1204      H1208   1.084       .  S
S1205      H1210   1.407       .  S
S1207      H1211   1.407       .  S
C1213      C1214   1.400       .  A
C1213      C1218   1.399       .  A
C1213      H1223   1.084       .  S
C1214      C1219   1.475       .  S
C1214      C1215   1.410       .  A
C1215      C1216   1.398       .  A
C1215      S1220   1.805       .  S
C1216      C1217   1.407       .  A
C1216      H1221   1.084       .  S
C1217      C1218   1.417       .  A
C1218      S1222   1.803       .  S
C1219      C1224   1.408       .  A
C1219      C1228   1.400       .  A
S1220      H1236   1.405       .  S
S1222      H1233   1.407       .  S
C1224      C1225   1.402       .  A
C1224      S1229   1.806       .  S
C1225      C1226   1.405       .  A
C1225      H1230   1.083       .  S
C1226      C1227   1.415       .  A
C1227      C1228   1.397       .  A
C1227      S1231   1.804       .  S
C1228      H1232   1.084       .  S
S1229      H1234   1.407       .  S
S1231      H1235   1.407       .  S
C1237      C1238   1.401       .  A
C1237      C1242   1.398       .  A
C1237      H1247   1.084   1_556  S
C1238      C1239   1.411       .  A
C1239      C1240   1.399       .  A
C1239      S1244   1.804       .  S
C1240      C1241   1.407       .  A
C1240      H1245   1.084       .  S
C1241      C1242   1.418       .  A
C1242      S1246   1.800       .  S
C1243      C1248   1.410       .  A
C1243      C1252   1.400       .  A
S1244      H1260   1.406       .  S
S1246      H1257   1.408       .  S
C1248      C1249   1.404       .  A
C1249      C1250   1.405       .  A
C1249      H1254   1.083       .  S
C1250      C1251   1.415       .  A
C1251      C1252   1.396       .  A
C1251      S1255   1.799   1_545  S
C1252      H1256   1.084       .  S
S1253      H1258   1.407       .  S
S1255      H1259   1.407       .  S
C1261      C1262   1.401       .  A
C1261      C1266   1.401       .  A
C1261      H1271   1.084       .  S
C1262      C1267   1.484       .  S
C1262      C1263   1.411       .  A
C1263      C1264   1.399       .  A
C1263      S1268   1.804   1_545  S
C1264      C1265   1.407       .  A
C1264      H1269   1.084       .  S
C1265      C1266   1.421       .  A
C1266      S1270   1.803       .  S
C1267      C1272   1.410       .  A
C1267      C1276   1.403       .  A
S1268      H1284   1.406   1_565  S
S1270      H1281   1.408       .  S
C1272      C1273   1.403       .  A
C1272      S1277   1.807       .  S
C1273      C1274   1.405       .  A
C1273      H1278   1.083       .  S
C1274      C1275   1.413       .  A
C1275      C1276   1.403       .  A
C1275      S1279   1.808       .  S
C1276      H1280   1.083       .  S
S1277      H1282   1.407       .  S
S1279      H1283   1.407       .  S
C1285      C1286   1.399       .  A
C1285      C1290   1.398       .  A
C1285      H1295   1.084       .  S
C1286      C1291   1.472       .  S
C1286      C1287   1.408       .  A
C1287      C1288   1.395       .  A
C1287      S1292   1.805       .  S
C1288      C1289   1.407       .  A
C1288      H1293   1.084       .  S
C1289      C1290   1.419       .  A
C1290      S1294   1.802       .  S
C1291      C1296   1.407       .  A
C1291      C1300   1.399       .  A
S1292      H1308   1.405       .  S
S1294      H1305   1.408       .  S
C1296      C1297   1.401       .  A
C1296      S1301   1.806       .  S
C1297      C1298   1.406       .  A
C1297      H1302   1.083       .  S
C1298      C1299   1.416       .  A
C1299      C1300   1.395       .  A
C1299      S1303   1.804       .  S
C1300      H1304   1.084       .  S
S1301      H1306   1.407       .  S
S1303      H1307   1.407       .  S
C1309      C1310   1.402       .  A
C1309      C1314   1.399       .  A
C1309      H1319   1.084       .  S
C1310      C1315   1.480       .  S
C1310      C1311   1.411       .  A
C1311      C1312   1.399       .  A
C1311      S1316   1.803       .  S
C1312      C1313   1.405       .  A
C1312      H1317   1.084       .  S
C1313      C1314   1.415       .  A
C1314      S1318   1.803       .  S
C1315      C1320   1.407       .  A
C1315      C1324   1.402       .  A
S1316      H1332   1.406       .  S
S1318      H1329   1.407       .  S
C1320      C1321   1.401       .  A
C1320      S1325   1.807       .  S
C1321      C1322   1.407       .  A
C1321      H1326   1.083       .  S
C1322      C1323   1.417       .  A
C1323      C1324   1.401       .  A
C1323      S1327   1.803       .  S
C1324      H1328   1.084       .  S
S1325      H1330   1.407       .  S
S1327      H1331   1.407       .  S
C1333      C1334   1.399       .  A
C1333      C1338   1.398       .  A
C1333      H1343   1.084       .  S
C1334      C1335   1.410       .  A
C1335      C1336   1.398       .  A
C1336      C1337   1.407       .  A
C1336      H1341   1.084       .  S
C1337      C1338   1.419       .  A
C1338      S1342   1.803       .  S
C1339      C1344   1.406       .  A
C1339      C1348   1.399       .  A
S1340      H1356   1.405       .  S
S1342      H1353   1.408       .  S
C1344      C1345   1.401       .  A
C1344      S1349   1.807       .  S
C1345      C1346   1.408       .  A
C1345      H1350   1.082       .  S
C1346      C1347   1.419       .  A
C1347      C1348   1.398       .  A
C1347      S1351   1.800       .  S
S1349      H1354   1.407       .  S
S1351      H1355   1.408       .  S
C1357      C1358   1.400       .  A
C1357      C1362   1.396       .  A
C1357      H1367   1.084       .  S
C1358      C1363   1.475       .  S
C1358      C1359   1.411       .  A
C1359      C1360   1.399       .  A
C1359      S1364   1.805       .  S
C1360      C1361   1.405       .  A
C1360      H1365   1.084       .  S
C1361      C1362   1.417       .  A
C1362      S1366   1.804       .  S
C1363      C1368   1.408       .  A
C1363      C1372   1.399       .  A
S1364      H1380   1.405       .  S
S1366      H1377   1.407       .  S
C1368      C1369   1.401       .  A
C1368      S1373   1.807       .  S
C1369      C1370   1.406       .  A
C1369      H1374   1.082       .  S
C1370      C1371   1.419       .  A
C1371      C1372   1.398       .  A
C1371      S1375   1.804       .  S
C1372      H1376   1.084       .  S
S1373      H1378   1.407       .  S
S1375      H1379   1.408       .  S
C1381      C1382   1.401       .  A
C1381      C1386   1.399       .  A
C1381      H1391   1.084       .  S
C1382      C1387   1.479       .  S
C1382      C1383   1.412       .  A
C1383      C1384   1.400       .  A
C1383      S1388   1.805       .  S
C1384      C1385   1.405       .  A
C1384      H1389   1.084       .  S
C1385      C1386   1.416       .  A
C1386      S1390   1.804       .  S
C1387      C1392   1.409       .  A
C1387      C1396   1.401       .  A
S1388      H1404   1.405       .  S
S1390      H1401   1.407       .  S
C1392      C1393   1.402       .  A
C1392      S1397   1.807       .  S
C1393      C1394   1.406       .  A
C1393      H1398   1.083       .  S
C1394      C1395   1.415       .  A
C1395      C1396   1.399       .  A
C1395      S1399   1.803       .  S
C1396      H1400   1.084       .  S
S1397      H1402   1.407       .  S
S1399      H1403   1.407       .  S
C1405      C1410   1.399       .  A
C1406      C1411   1.476   1_554  S
C1407      C1408   1.396       .  A
C1407      S1412   1.805       .  S
C1408      C1409   1.410       .  A
C1408      H1413   1.083       .  S
C1409      C1410   1.422       .  A
C1410      S1414   1.800       .  S
C1411      C1416   1.407       .  A
C1411      C1420   1.400       .  A
S1414      H1425   1.407       .  S
C1416      C1417   1.401       .  A
C1416      S1421   1.808       .  S
C1417      C1418   1.407       .  A
C1417      H1422   1.082       .  S
C1418      C1419   1.418       .  A
C1419      C1420   1.399       .  A
C1419      S1423   1.799       .  S
S1421      H1426   1.407       .  S
S1423      H1427   1.407       .  S
C1429      C1430   1.401       .  A
C1429      C1434   1.400       .  A
C1429      H1439   1.084       .  S
C1430      C1435   1.476       .  S
C1430      C1431   1.411       .  A
C1431      C1432   1.396       .  A
C1431      S1436   1.806       .  S
C1432      C1433   1.406       .  A
C1432      H1437   1.084       .  S
C1433      C1434   1.417       .  A
C1434      S1438   1.802       .  S
C1435      C1440   1.407       .  A
C1435      C1444   1.400       .  A
S1436      H1452   1.405       .  S
S1438      H1449   1.407       .  S
C1440      C1441   1.400       .  A
C1440      S1445   1.807       .  S
C1441      C1442   1.406       .  A
C1441      H1446   1.083       .  S
C1442      C1443   1.416       .  A
C1443      C1444   1.402       .  A
C1443      S1447   1.808       .  S
C1444      H1448   1.083       .  S
S1445      H1450   1.407       .  S
S1447      H1451   1.407       .  S
C1453      C1454   1.400       .  A
C1453      C1458   1.399       .  A
C1453      H1463   1.084       .  S
C1454      C1459   1.477   1_655  S
C1454      C1455   1.410       .  A
C1455      C1456   1.399       .  A
C1455      S1460   1.805       .  S
C1456      C1457   1.408       .  A
C1456      H1461   1.084       .  S
C1457      C1458   1.416       .  A
C1458      S1462   1.799       .  S
C1459      C1464   1.408       .  A
C1459      C1468   1.401       .  A
S1460      H1476   1.405       .  S
S1462      H1473   1.407       .  S
C1464      C1465   1.402       .  A
C1464      S1469   1.807       .  S
C1465      C1466   1.405       .  A
C1465      H1470   1.083       .  S
C1466      C1467   1.416       .  A
C1467      C1468   1.400       .  A
C1467      S1471   1.803       .  S
C1468      H1472   1.084   1_455  S
S1469      H1474   1.407       .  S
S1471      H1475   1.407       .  S
C1477      C1478   1.401       .  A
C1477      C1482   1.399       .  A
C1477      H1487   1.084       .  S
C1478      C1483   1.472       .  S
C1478      C1479   1.410       .  A
C1479      C1480   1.396       .  A
C1479      S1484   1.807       .  S
C1480      C1481   1.407       .  A
C1480      H1485   1.084       .  S
C1481      C1482   1.417       .  A
C1482      S1486   1.803       .  S
C1483      C1488   1.406       .  A
C1483      C1492   1.402       .  A
S1484      H1500   1.402       .  S
S1486      H1497   1.407       .  S
C1488      C1489   1.397       .  A
C1488      S1493   1.807       .  S
C1489      C1490   1.405       .  A
C1489      H1494   1.083       .  S
C1490      C1491   1.412       .  A
C1491      C1492   1.400       .  A
C1491      S1495   1.800       .  S
C1492      H1496   1.084       .  S
S1493      H1498   1.407       .  S
S1495      H1499   1.406       .  S
C1501      C1506   1.396       .  A
C1502      C1507   1.472       .  S
C1503      C1504   1.396       .  A
C1503      S1508   1.805   1_556  S
C1504      C1505   1.405       .  A
C1504      H1509   1.084       .  S
C1505      C1506   1.418       .  A
C1506      S1510   1.804       .  S
C1507      C1512   1.406       .  A
C1507      C1516   1.401       .  A
S1510      H1521   1.408       .  S
C1512      C1513   1.396       .  A
C1512      S1517   1.809       .  S
C1513      C1514   1.407       .  A
C1513      H1518   1.082       .  S
C1514      C1515   1.415       .  A
C1515      C1516   1.400       .  A
C1515      S1519   1.802       .  S
S1517      H1522   1.407       .  S
S1519      H1523   1.407       .  S
C1525      C1526   1.402       .  A
C1525      C1530   1.402       .  A
C1525      H1535   1.084       .  S
C1526      C1531   1.477       .  S
C1526      C1527   1.410       .  A
C1527      C1528   1.396       .  A
C1527      S1532   1.804       .  S
C1528      C1529   1.405       .  A
C1528      H1533   1.084       .  S
C1529      C1530   1.416       .  A
C1530      S1534   1.803       .  S
C1531      C1536   1.408       .  A
C1531      C1540   1.400       .  A
S1532      H1548   1.405       .  S
S1534      H1545   1.407       .  S
C1536      C1537   1.402       .  A
C1536      S1541   1.807       .  S
C1537      C1538   1.406       .  A
C1537      H1542   1.083       .  S
C1538      C1539   1.416       .  A
C1539      C1540   1.399       .  A
C1539      S1543   1.803       .  S
C1540      H1544   1.084       .  S
S1541      H1546   1.407       .  S
S1543      H1547   1.408       .  S
C1549      C1550   1.401       .  A
C1549      C1554   1.396       .  A
C1550      C1551   1.411       .  A
C1551      C1552   1.401       .  A
C1551      S1556   1.804       .  S
C1552      C1553   1.407       .  A
C1552      H1557   1.084       .  S
C1553      C1554   1.417       .  A
C1554      S1558   1.804       .  S
C1555      C1560   1.409       .  A
C1555      C1564   1.401       .  A
S1558      H1569   1.408       .  S
C1560      C1561   1.403       .  A
C1561      C1562   1.408       .  A
C1561      H1566   1.082       .  S
C1562      C1563   1.419       .  A
C1563      C1564   1.399       .  A
C1563      S1567   1.803       .  S
C1564      H1568   1.084       .  S
S1567      H1571   1.407       .  S
C1573      C1574   1.400       .  A
C1573      C1578   1.396       .  A
C1573      H1583   1.084       .  S
C1574      C1579   1.479       .  S
C1574      C1575   1.410       .  A
C1575      C1576   1.402       .  A
C1575      S1580   1.803       .  S
C1576      C1577   1.409       .  A
C1576      H1581   1.084       .  S
C1577      C1578   1.418       .  A
C1578      S1582   1.803       .  S
C1579      C1584   1.408       .  A
C1579      C1588   1.402       .  A
S1580      H1596   1.406       .  S
S1582      H1593   1.408       .  S
C1584      C1585   1.400       .  A
C1584      S1589   1.807       .  S
C1585      C1586   1.405       .  A
C1585      H1590   1.083       .  S
C1586      C1587   1.417       .  A
C1587      C1588   1.402       .  A
C1587      S1591   1.803       .  S
C1588      H1592   1.084       .  S
S1589      H1594   1.407       .  S
S1591      H1595   1.407   1_565  S
C1597      C1598   1.401       .  A
C1597      C1602   1.396       .  A
C1597      H1607   1.084       .  S
C1598      C1603   1.474       .  S
C1598      C1599   1.411       .  A
C1599      C1600   1.397       .  A
C1599      S1604   1.804       .  S
C1600      C1601   1.403       .  A
C1600      H1605   1.084       .  S
C1601      C1602   1.411       .  A
C1602      S1606   1.801       .  S
C1603      C1608   1.408       .  A
C1603      C1612   1.399       .  A
S1604      H1620   1.406       .  S
S1606      H1617   1.407       .  S
C1608      C1609   1.401       .  A
C1608      S1613   1.808       .  S
C1609      C1610   1.406       .  A
C1609      H1614   1.083       .  S
C1610      C1611   1.416       .  A
C1611      C1612   1.396       .  A
C1611      S1615   1.803       .  S
C1612      H1616   1.084       .  S
S1613      H1618   1.407       .  S
S1615      H1619   1.407       .  S
C1621      C1622   1.401       .  A
C1621      C1626   1.399   1_655  A
C1621      H1631   1.084   1_655  S
C1622      C1627   1.470       .  S
C1622      C1623   1.408       .  A
C1623      C1624   1.394       .  A
C1623      S1628   1.804       .  S
C1624      C1625   1.406       .  A
C1624      H1629   1.084       .  S
C1625      C1626   1.416   1_655  A
C1626      S1630   1.803       .  S
C1627      C1632   1.406       .  A
C1627      C1636   1.400       .  A
S1628      H1644   1.405       .  S
S1630      H1641   1.407       .  S
C1632      C1633   1.398       .  A
C1632      S1637   1.807       .  S
C1633      C1634   1.403       .  A
C1633      H1638   1.083       .  S
C1634      C1635   1.411       .  A
C1635      C1636   1.402       .  A
C1635      S1639   1.803       .  S
C1636      H1640   1.083       .  S
S1637      H1642   1.407       .  S
S1639      H1643   1.407       .  S
C1645      C1646   1.401       .  A
C1645      C1650   1.395       .  A
C1645      H1655   1.084       .  S
C1646      C1651   1.472       .  S
C1646      C1647   1.412       .  A
C1647      C1648   1.398       .  A
C1647      S1652   1.805       .  S
C1648      C1649   1.403       .  A
C1648      H1653   1.084       .  S
C1649      C1650   1.412       .  A
C1650      S1654   1.804       .  S
C1651      C1656   1.408       .  A
S1652      H1668   1.405       .  S
S1654      H1665   1.407       .  S
C1656      S1661   1.808       .  S
C1657      C1658   1.403       .  A
C1657      H1662   1.083   1_655  S
C1658      C1659   1.415       .  A
C1659      C1660   1.399       .  A
C1659      S1663   1.803       .  S
C1660      H1664   1.084       .  S
S1661      H1666   1.407   1_655  S
S1663      H1667   1.407       .  S
C1669      C1670   1.401       .  A
C1669      C1674   1.400       .  A
C1669      H1679   1.084       .  S
C1670      C1675   1.479       .  S
C1670      C1671   1.411       .  A
C1671      C1672   1.400       .  A
C1671      S1676   1.805       .  S
C1672      C1673   1.407       .  A
C1672      H1677   1.084       .  S
C1673      C1674   1.415       .  A
C1674      S1678   1.798       .  S
C1675      C1680   1.408       .  A
C1675      C1684   1.402       .  A
S1676      H1692   1.403       .  S
S1678      H1689   1.407       .  S
C1680      C1681   1.403   1_565  A
C1680      S1685   1.807       .  S
C1681      C1682   1.405       .  A
C1681      H1686   1.083       .  S
C1682      C1683   1.416   1_545  A
C1683      C1684   1.401       .  A
C1683      S1687   1.803       .  S
C1684      H1688   1.084       .  S
S1685      H1690   1.407   1_565  S
S1687      H1691   1.407   1_565  S
C1693      C1694   1.402       .  A
C1693      C1698   1.401       .  A
C1694      C1699   1.477       .  S
C1694      C1695   1.410       .  A
C1695      C1696   1.396       .  A
C1695      S1700   1.806       .  S
C1696      C1697   1.407       .  A
C1696      H1701   1.084       .  S
C1697      C1698   1.414       .  A
C1698      S1702   1.797       .  S
S1700      H1716   1.405       .  S
S1702      H1713   1.407       .  S
C1704      C1705   1.401       .  A
C1704      S1709   1.807       .  S
C1705      C1706   1.405       .  A
C1705      H1710   1.083       .  S
C1706      C1707   1.415       .  A
C1707      C1708   1.401       .  A
C1707      S1711   1.804       .  S
S1709      H1714   1.407       .  S
S1711      H1715   1.407       .  S
C1717      C1718   1.401       .  A
C1717      C1722   1.395       .  A
C1717      H1727   1.084       .  S
C1718      C1723   1.479       .  S
C1718      C1719   1.412       .  A
C1719      C1720   1.402       .  A
C1719      S1724   1.803       .  S
C1720      C1721   1.405       .  A
C1720      H1725   1.084       .  S
C1721      C1722   1.415       .  A
C1722      S1726   1.805       .  S
C1723      C1728   1.409       .  A
C1723      C1732   1.402       .  A
S1724      H1740   1.406       .  S
S1726      H1737   1.407       .  S
C1728      C1729   1.402       .  A
C1728      S1733   1.807       .  S
C1729      C1730   1.404       .  A
C1729      H1734   1.083       .  S
C1730      C1731   1.414       .  A
C1731      C1732   1.400       .  A
C1731      S1735   1.803       .  S
C1732      H1736   1.084       .  S
S1733      H1738   1.407       .  S
S1735      H1739   1.407       .  S
C1741      C1742   1.402       .  A
C1741      C1746   1.399       .  A
C1741      H1751   1.084       .  S
C1742      C1747   1.478       .  S
C1742      C1743   1.412       .  A
C1743      C1744   1.400       .  A
C1743      S1748   1.804       .  S
C1744      C1745   1.403       .  A
C1744      H1749   1.084       .  S
C1745      C1746   1.415       .  A
C1746      S1750   1.804       .  S
C1747      C1752   1.408       .  A
C1747      C1756   1.401       .  A
S1748      H1764   1.406       .  S
S1750      H1761   1.407       .  S
C1752      C1753   1.402       .  A
C1752      S1757   1.807       .  S
C1753      C1754   1.407       .  A
C1753      H1758   1.083       .  S
C1754      C1755   1.416       .  A
C1755      C1756   1.399       .  A
C1755      S1759   1.802       .  S
C1756      H1760   1.084       .  S
S1757      H1762   1.407       .  S
S1759      H1763   1.407       .  S
C1765      C1766   1.401       .  A
C1765      C1770   1.398       .  A
C1765      H1775   1.084       .  S
C1766      C1771   1.477       .  S
C1766      C1767   1.413       .  A
C1767      C1768   1.401       .  A
C1767      S1772   1.806       .  S
C1768      C1769   1.404       .  A
C1768      H1773   1.084       .  S
C1769      C1770   1.414       .  A
C1770      S1774   1.804       .  S
C1771      C1776   1.408       .  A
C1771      C1780   1.401       .  A
S1772      H1788   1.402       .  S
S1774      H1785   1.407       .  S
C1776      C1777   1.401       .  A
C1776      S1781   1.806       .  S
C1777      C1778   1.403       .  A
C1777      H1782   1.083       .  S
C1778      C1779   1.413       .  A
C1779      C1780   1.401       .  A
C1779      S1783   1.803       .  S
C1780      H1784   1.084       .  S
S1781      H1786   1.407       .  S
S1783      H1787   1.406       .  S
C1789      C1790   1.400       .  A
C1789      C1794   1.400       .  A
C1789      H1799   1.084       .  S
C1790      C1795   1.480       .  S
C1790      C1791   1.410       .  A
C1791      C1792   1.399       .  A
C1792      C1793   1.408       .  A
C1792      H1797   1.083       .  S
C1793      C1794   1.419       .  A
C1794      S1798   1.801       .  S
S1796      H1812   1.406   1_554  S
S1798      H1809   1.407       .  S
C1800      C1801   1.402   1_554  A
C1801      C1802   1.410       .  A
C1801      H1806   1.082       .  S
C1802      C1803   1.420       .  A
C1803      C1804   1.402       .  A
C1803      S1807   1.801       .  S
C1804      H1808   1.084       .  S
S1805      H1810   1.407       .  S
S1807      H1811   1.408       .  S
