geometry optimzed in LAMMPS
_audit_creation_date              2020-11-30 
_audit_creation_method            'lammps2cif' 
_symmetry_space_group_name_H-M    'P1' 
_symmetry_Int_Tables_number       1 
_symmetry_cell_setting            triclinic 
loop_ 
_symmetry_equiv_pos_as_xyz 
  x,y,z 
_cell_length_a                    59.67066584 
_cell_length_b                    59.78637513261809 
_cell_length_c                    21.97613174795878 
_cell_angle_alpha                 91.29733060275115 
_cell_angle_beta                  90.57979822764248 
_cell_angle_gamma                 120.25707910781351 
loop_ 
_atom_site_label 
_atom_site_type_symbol 
_atom_site_fract_x 
_atom_site_fract_y 
_atom_site_fract_z 
_atom_site_charge 
C1          C  0.40218233  0.21126847  0.17710004     0.03000
C2          C  0.40898401  0.20430415  0.12162062    -0.13200
C3          C  0.41381603  0.18368401  0.11851963     0.00500
C4          C  0.41169288  0.16982603  0.17071128    -0.11700
C5          C  0.40497111  0.17641829  0.22642485     0.03000
C6          C  0.40028346  0.19722981  0.22944926    -0.11100
H7          H  0.41050901  0.21485484  0.08094837     0.08600
H8          H  0.41571827  0.15405512  0.16803734     0.06100
H9          H  0.39531560  0.20256862  0.27254528     0.05900
C10         C  0.21952046  0.81212158  0.75657251     0.03000
C11         C  0.20498953  0.79703185  0.70470756    -0.13200
C12         C  0.18268543  0.77261089  0.71108353     0.00500
C13         C  0.17408441  0.76398712  0.76970026    -0.11700
C14         C  0.18797549  0.77857026  0.82162279     0.03000
C15         C  0.21084229  0.80240013  0.81505887    -0.11100
H16         H  0.21136157  0.80378497  0.65936607     0.08600
H17         H  0.15674628  0.74529164  0.77505368     0.06100
H18         H  0.22184282  0.81313586  0.85554746     0.05900
C19         C  0.75915358  0.17253998  0.19607684     0.03000
C20         C  0.76948670  0.18651652  0.14249587    -0.13200
C21         C  0.79256438  0.21068052  0.14500826     0.00500
C22         C  0.80549254  0.22091045  0.20110673    -0.11700
C23         C  0.79550837  0.20750840  0.25468125     0.03000
C24         C  0.77242215  0.18346861  0.25207437    -0.11100
H25         H  0.75930834  0.17908915  0.09911138     0.08600
H26         H  0.82311340  0.23970554  0.20325757     0.06100
H27         H  0.76529373  0.17307701  0.29373498     0.05900
C28         C  0.56260294  0.73946112  0.69498090     0.03000
C29         C  0.55984825  0.75047936  0.64097524    -0.13200
C30         C  0.55768016  0.77283744  0.64343885     0.00500
C31         C  0.55841140  0.78431983  0.70023970    -0.11700
C32         C  0.56168954  0.77418588  0.75457366     0.03000
C33         C  0.56332548  0.75150802  0.75171098    -0.11100
H34         H  0.55900671  0.74152287  0.59697705     0.08600
H35         H  0.55686355  0.80163170  0.70205277     0.06100
H36         H  0.56643023  0.74403572  0.79343441     0.05900
C37         C  0.80412988  0.55613842  0.18433285     0.03000
C38         C  0.79299361  0.55368788  0.12557416    -0.13200
C39         C  0.76881273  0.55233875  0.11906861     0.00500
C40         C  0.75622962  0.55401701  0.17095916    -0.11700
C41         C  0.76681273  0.55600164  0.22917878     0.03000
C42         C  0.79039143  0.55656834  0.23554108    -0.11100
H43         H  0.80287057  0.55272022  0.08541068     0.08600
H44         H  0.73754302  0.55280677  0.16594718     0.06100
H45         H  0.79816087  0.55762364  0.28094711     0.05900
C46         C  0.17545965  0.40483740  0.74704113     0.03000
C47         C  0.18617386  0.40175615  0.69246265    -0.13200
C48         C  0.20973998  0.40172185  0.69353358     0.00500
C49         C  0.22256060  0.40472996  0.74950066    -0.11700
C50         C  0.21230472  0.40777999  0.80377482     0.03000
C51         C  0.18899493  0.40803128  0.80258338    -0.11100
H52         H  0.17603255  0.39877212  0.64925846     0.08600
H53         H  0.24104260  0.40535499  0.75087874     0.06100
H54         H  0.18197355  0.41151940  0.84492407     0.05900
O55         O  0.92349382  0.32860471  0.59985084    -0.81000
O56         O  0.96820376  0.41966768  0.80399772    -0.65700
O57         O  0.93846838  0.35510083  0.71292618    -1.12300
C58         C  0.86459492  0.36695944  0.70697978     1.05900
O59         O  0.93319459  0.40374107  0.85980308    -0.78900
O60         O  0.88651078  0.36093061  0.83493025    -0.66500
Ni61       Ni  0.95536359  0.35427876  0.64015624     1.34900
C62         C  0.88384804  0.33884344  0.82261122     0.84600
O63         O  0.98646947  0.38804463  0.76911048    -0.79500
O64         O  0.98987842  0.37857069  0.67205940    -0.89700
C65         C  0.95665734  0.42101755  0.85116776     0.84200
O66         O  0.95174272  0.38136613  0.60574127    -0.68000
O67         O  0.87664113  0.38571003  0.74585015    -0.87200
C68         C  0.96123353  0.40403150  0.62932965     0.85000
C69         C  0.99962563  0.38657623  0.72548501     1.06600
H70         H  0.92474321  0.39829883  0.70819149     0.38400
O71         O  0.92225879  0.38627074  0.73953713    -1.09900
O72         O  0.89315257  0.33418097  0.77520741    -0.66600
Ni73       Ni  0.90548579  0.35303191  0.70092142     1.26300
O74         O  0.96807461  0.40894583  0.68554199    -0.66800
O75         O  0.87314134  0.35221200  0.68921217    -0.79100
C76         C  0.89958317  0.31517273  0.61266858     0.84400
O77         O  0.89012627  0.32029311  0.65877586    -0.66200
Ni78       Ni  0.90536716  0.39433409  0.80110413     1.27400
Ni79       Ni  0.95446126  0.38780299  0.75642073     1.26100
H80         H  0.93693116  0.34174278  0.73947017     0.38900
O81         O  0.06612799  0.64797650  0.13039782    -0.81000
O82         O  0.01237737  0.55727727  0.31737579    -0.65700
O83         O  0.04625968  0.62228739  0.23875731    -1.12300
C84         C  0.11968054  0.61123760  0.26888079     1.05900
O85         O  0.04270162  0.57381751  0.38928568    -0.78900
O86         O  0.08935837  0.61728595  0.38484077    -0.66500
Ni87       Ni  0.03250368  0.62320173  0.16036094     1.34900
C88         C  0.09363042  0.63960116  0.37124095     0.84600
O89         O  0.99629544  0.58894984  0.27795814    -0.79500
O90         O  0.99662894  0.59990736  0.18138693    -0.89700
C91         C  0.02071199  0.55587505  0.36949880     0.84200
O92         O  0.03540190  0.59503391  0.12613213    -0.68000
O93         O  0.10575828  0.59350360  0.30561822    -0.87200
C94         C  0.02410526  0.57228585  0.14658485     0.85000
C95         C  0.98488732  0.59059516  0.23075092     1.06600
H96         H  0.06037037  0.57931122  0.24321545     0.38400
O97         O  0.06117956  0.59146988  0.27410753    -1.09900
O98         O  0.08852592  0.64450266  0.31822142    -0.66600
Ni99       Ni  0.07978793  0.62485914  0.24078736     1.26300
O100        O  0.01774623  0.56809276  0.20218602    -0.66800
O101        O  0.11247027  0.62569932  0.24346466    -0.79100
C102        C  0.08919124  0.66209194  0.15189928     0.84400
O103        O  0.09689663  0.65742781  0.20166522    -0.66200
Ni104      Ni  0.07396084  0.58405977  0.34532981     1.27400
Ni105      Ni  0.02842040  0.58947080  0.27665383     1.26100
H106        H  0.04633201  0.63542993  0.26527734     0.38900
O107        O  0.40337839  0.05188831  0.56604775    -0.81000
O108        O  0.44946633  0.01271302  0.77604092    -0.65700
O109        O  0.41615329  0.04188969  0.68175257    -1.12300
C110        C  0.50379072  0.11221080  0.66726996     1.05900
O111        O  0.47283498  0.04966748  0.82786736    -0.78900
O112        O  0.47613618  0.09504056  0.80004518    -0.66500
Ni113      Ni  0.39551902  0.02199508  0.61235759     1.34900
C114        C  0.45767112  0.09874965  0.78507027     0.84600
O115        O  0.39911473  0.99658790  0.74550409    -0.79500
O116        O  0.38346863  0.98905680  0.64989126    -0.89700
C117        C  0.46457315  0.02553043  0.82096294     0.84200
O118        O  0.42401911  0.02112977  0.57724479    -0.68000
O119        O  0.50986331  0.10194508  0.70998626    -0.87200
C120        C  0.43631810  0.01132776  0.60155304     0.85000
C121        C  0.38249223  0.98209365  0.70459191     1.06600
H122        H  0.47209170  0.05131538  0.67558187     0.38400
O123        O  0.46369293  0.05629283  0.70606586    -1.09900
O124        O  0.44437127  0.08972371  0.73564737    -0.66600
Ni125      Ni  0.44815744  0.07275613  0.66391158     1.26300
O126        O  0.43600827  0.00775320  0.65865494    -0.66800
O127        O  0.48059923  0.10311207  0.64701602    -0.79100
C128        C  0.41585303  0.07640935  0.57355421     0.84400
O129        O  0.43161219  0.08764845  0.61829810    -0.66200
Ni130      Ni  0.49010433  0.07515156  0.76646040     1.27400
Ni131      Ni  0.43199118  0.02625709  0.72751127     1.26100
H132        H  0.40578657  0.04586207  0.70803068     0.38900
O133        O  0.56908661  0.90727989  0.07901600    -0.81000
O134        O  0.54472218  0.96570093  0.28737479    -0.65700
O135        O  0.57195343  0.93033114  0.19352841    -1.12300
C136        C  0.48698425  0.85831991  0.22793890     1.05900
O137        O  0.53377104  0.93454934  0.35125402    -0.78900
O138        O  0.52334998  0.88516486  0.33828966    -0.66500
Ni139      Ni  0.58413304  0.94187203  0.11409596     1.34900
C140        C  0.54067031  0.88010368  0.32195530     0.84600
O141        O  0.59128542  0.98186192  0.23609151    -0.79500
O142        O  0.60202992  0.97793884  0.14075769    -0.89700
C143        C  0.53554813  0.95589939  0.33830449     0.84200
O144        O  0.55445518  0.94337132  0.08554678    -0.68000
O145        O  0.48349117  0.87360379  0.26309388    -0.87200
C146        C  0.54366222  0.95473688  0.11067940     0.85000
C147        C  0.60545172  0.99131111  0.18978935     1.06600
H148        H  0.51575454  0.91709052  0.20584385     0.38400
O149        O  0.52760779  0.91646838  0.23509230    -1.09900
O150        O  0.55291628  0.88844713  0.27239878    -0.66600
Ni151      Ni  0.54081724  0.89694130  0.19754455     1.26300
O152        O  0.54615977  0.96006724  0.16783776    -0.66800
O153        O  0.50853217  0.86462114  0.20242853    -0.79100
C154        C  0.56371607  0.88550416  0.10028996     0.84400
O155        O  0.55511135  0.87915826  0.15363502    -0.66200
Ni156      Ni  0.50867487  0.90437199  0.30656882     1.27400
Ni157      Ni  0.55902638  0.94945829  0.23731847     1.26100
H158        H  0.58569670  0.93048638  0.21722809     0.38900
C159        C  0.65334323  0.33388149  0.56007202     0.80100
N160        N  0.67884132  0.34103216  0.56646689    -0.78200
C161        C  0.68609014  0.32285807  0.57020082     0.82500
N162        N  0.66751368  0.29739804  0.56804561    -0.78200
C163        C  0.64199614  0.28985863  0.56175799     0.82600
N164        N  0.63503273  0.30823104  0.55812318    -0.79900
C165        C  0.33096450  0.63009195  0.24286074     0.80100
N166        N  0.30581383  0.62438936  0.24147037    -0.78200
C167        C  0.29995414  0.64337133  0.23322347     0.82500
N168        N  0.31945024  0.66809459  0.22708184    -0.78200
C169        C  0.34456844  0.67410941  0.22853295     0.82600
N170        N  0.35021128  0.65501060  0.23621541    -0.79900
O171        O  0.39946674  0.44860642  0.10209075    -0.81000
O172        O  0.32331078  0.41729709  0.30389794    -0.65700
O173        O  0.38726440  0.44663826  0.22193349    -1.12300
C174        C  0.37499140  0.36251852  0.22775873     1.05900
O175        O  0.33747888  0.39903802  0.36898626    -0.78900
O176        O  0.38573298  0.40660383  0.35495847    -0.66500
Ni177      Ni  0.39499197  0.47036498  0.15961056     1.34900
C178        C  0.40738795  0.41996215  0.32954241     0.84600
O179        O  0.35636181  0.46575624  0.26968589    -0.79500
O180        O  0.39044508  0.49300352  0.21425884    -0.89700
C181        C  0.32165663  0.40655583  0.35418397     0.84200
O182        O  0.36088010  0.45750040  0.12757459    -0.68000
O183        O  0.36498955  0.36248184  0.27895035    -0.87200
C184        C  0.33854257  0.43892078  0.13956435     0.85000
C185        C  0.37199965  0.48833754  0.25020759     1.06600
H186        H  0.34018872  0.38919019  0.22271169     0.38400
O187        O  0.35456897  0.40070888  0.24955403    -1.09900
O188        O  0.40938602  0.42166483  0.27211247    -0.66600
Ni189      Ni  0.38579918  0.41436026  0.20433620     1.26300
O190        O  0.33423908  0.42528050  0.18642376    -0.66800
O191        O  0.38298009  0.38114970  0.19098524    -0.79100
C192        C  0.41726597  0.44324649  0.10999484     0.84400
O193        O  0.41633695  0.42993905  0.15525581    -0.66200
Ni194      Ni  0.35213198  0.38227134  0.32094991     1.27400
Ni195      Ni  0.35495013  0.43279179  0.26065577     1.26100
H196        H  0.40044370  0.45604595  0.25322597     0.38900
O197        O  0.64094581  0.55756882  0.55268926    -0.81000
O198        O  0.56012202  0.52369947  0.76381122    -0.65700
O199        O  0.62152378  0.55612284  0.66908359    -1.12300
C200        C  0.61090874  0.47112684  0.66839469     1.05900
O201        O  0.57766801  0.50537250  0.81798879    -0.78900
O202        O  0.61871999  0.50004293  0.79366298    -0.66500
Ni203      Ni  0.62104144  0.57044487  0.59308748     1.34900
C204        C  0.64031623  0.52053378  0.78608156     0.84600
O205        O  0.58895254  0.57262603  0.71999505    -0.79500
O206        O  0.60233246  0.58613125  0.62577258    -0.89700
C207        C  0.56052558  0.51184287  0.81106343     0.84200
O208        O  0.58988245  0.54095910  0.56172406    -0.68000
O209        O  0.59160573  0.46458765  0.70309028    -0.87200
C210        C  0.56811669  0.52833383  0.58706159     0.85000
C211        C  0.59300124  0.58805831  0.67630610     1.06600
H212        H  0.57975772  0.49971033  0.66612234     0.38400
O213        O  0.59189407  0.50979839  0.69874843    -1.09900
O214        O  0.64420439  0.53495231  0.74067071    -0.66600
Ni215      Ni  0.62486755  0.52591869  0.66327810     1.26300
O216        O  0.56571362  0.52975667  0.64430571    -0.66800
O217        O  0.62667590  0.49465441  0.65548258    -0.79100
C218        C  0.65831927  0.55287683  0.57186817     0.84400
O219        O  0.65720880  0.54360939  0.62380919    -0.66200
Ni220      Ni  0.58468620  0.48554913  0.75922561     1.27400
Ni221      Ni  0.58992136  0.54061876  0.71294477     1.26100
H222        H  0.63534850  0.56933326  0.69464915     0.38900
C223        C  0.52288193  0.50161193  0.38560327    -0.18000
C224        C  0.50045903  0.48640213  0.34978366    -0.20100
C225        C  0.47740298  0.46796846  0.37653266     0.20500
C226        C  0.47693046  0.46475353  0.43996402    -0.03100
C227        C  0.49957681  0.48015217  0.47617207    -0.06100
C228        C  0.52264052  0.49867858  0.44881835     0.20800
C229        C  0.49906785  0.47714201  0.53971681     0.18900
C230        C  0.47604107  0.45858027  0.56636627    -0.17600
C231        C  0.45361425  0.44331876  0.53049144    -0.19800
C232        C  0.45379642  0.44633831  0.46730160     0.20400
C233        C  0.43121496  0.43147433  0.43111442    -0.32800
C234        C  0.43145087  0.43471419  0.36779343     0.01100
C235        C  0.45477228  0.45291589  0.34096813    -0.24200
C236        C  0.54499309  0.51408752  0.48514017    -0.28800
C237        C  0.54459627  0.51148094  0.54870475     0.06800
C238        C  0.52151384  0.49284951  0.57553571    -0.27400
H239        H  0.54040123  0.51576361  0.36386070     0.11500
H240        H  0.50112723  0.48913333  0.30111833     0.12700
H241        H  0.47533136  0.45595527  0.61507406     0.11700
H242        H  0.43606486  0.42924307  0.55226134     0.11000
H243        H  0.41343613  0.41752351  0.45235129     0.16400
H244        H  0.45527172  0.45574672  0.29233796     0.12300
H245        H  0.56260317  0.52839635  0.46393806     0.15100
H246        H  0.52100328  0.49051649  0.62437197     0.14900
C247        C  0.52451176  0.47074765  0.00634177    -0.18000
C248        C  0.50408001  0.46014739  0.04712839    -0.20100
C249        C  0.48195295  0.46225991  0.03728611     0.20500
C250        C  0.48075414  0.47575452  0.98648742    -0.03100
C251        C  0.50138796  0.48649645  0.94539897    -0.06100
C252        C  0.52317986  0.48365586  0.95500337     0.20800
C253        C  0.49992860  0.49956487  0.89402389     0.18900
C254        C  0.47818107  0.50237857  0.88517974    -0.17600
C255        C  0.45778286  0.49179976  0.92591241    -0.19800
C256        C  0.45878027  0.47822143  0.97618282     0.20400
C257        C  0.43810823  0.46702785  0.01615262    -0.32800
C258        C  0.43893612  0.45337158  0.06678038     0.01100
C259        C  0.46101052  0.45111370  0.07714224    -0.24200
C260        C  0.54289733  0.49308669  0.91219080    -0.28800
C261        C  0.54109758  0.50514249  0.85933601     0.06800
C262        C  0.51982933  0.50889270  0.85145803    -0.27400
H263        H  0.54121432  0.46852441  0.01449847     0.11500
H264        H  0.50547120  0.45005546  0.08602575     0.12700
H265        H  0.47677281  0.51244820  0.84625596     0.11700
H266        H  0.44107166  0.49400499  0.91771507     0.11000
H267        H  0.42133383  0.46912750  0.00780897     0.16400
H268        H  0.46200493  0.44095178  0.11637805     0.12300
H269        H  0.55930513  0.49027281  0.91925327     0.15100
H270        H  0.51829266  0.51823882  0.81121450     0.14900
C271        C  0.40071780  0.58090101  0.24020198    -0.18000
C272        C  0.39467256  0.60057667  0.23675798    -0.20100
C273        C  0.36942186  0.59540256  0.24793472     0.20500
C274        C  0.35019537  0.57032518  0.26417080    -0.03100
C275        C  0.35634073  0.55047640  0.26799235    -0.06100
C276        C  0.38162397  0.55575856  0.25502677     0.20800
C277        C  0.33699844  0.52519266  0.28271590     0.18900
C278        C  0.31186627  0.52018486  0.29504701    -0.17600
C279        C  0.30576845  0.53987672  0.29122187    -0.19800
C280        C  0.32469953  0.56491831  0.27504090     0.20400
C281        C  0.31850434  0.58451792  0.26851294    -0.32800
C282        C  0.33751911  0.60949586  0.25144579     0.01100
C283        C  0.36300490  0.61478466  0.24200748    -0.24200
C284        C  0.38711188  0.53559429  0.25433005    -0.28800
C285        C  0.36761878  0.51005139  0.26564391     0.06800
C286        C  0.34282605  0.50515887  0.28202749    -0.27400
H287        H  0.42022393  0.58524206  0.23015790     0.11500
H288        H  0.40965617  0.61975615  0.22436985     0.12700
H289        H  0.29678377  0.50090639  0.30650466     0.11700
H290        H  0.28612786  0.53541471  0.30002869     0.11000
H291        H  0.29885322  0.58025368  0.27640079     0.16400
H292        H  0.37784932  0.63390830  0.22884131     0.12300
H293        H  0.40630507  0.53959990  0.24195971     0.15100
H294        H  0.32761017  0.48551727  0.29037365     0.14900
C295        C  0.58332377  0.37853760  0.63221826    -0.18000
C296        C  0.58910162  0.35931233  0.61549878    -0.20100
C297        C  0.61366152  0.36604078  0.59360262     0.20500
C298        C  0.63227671  0.39237601  0.58637910    -0.03100
C299        C  0.62634044  0.41179485  0.60268256    -0.06100
C300        C  0.60193889  0.40483516  0.62693965     0.20800
C301        C  0.64510033  0.43815779  0.59654005     0.18900
C302        C  0.66935802  0.44484080  0.57263002    -0.17600
C303        C  0.67535038  0.42562117  0.55721118    -0.19800
C304        C  0.65711537  0.39936003  0.56493054     0.20400
C305        C  0.66357492  0.38006115  0.55375606    -0.32800
C306        C  0.64544055  0.35381220  0.56326181     0.01100
C307        C  0.62023252  0.34695048  0.58118988    -0.24200
C308        C  0.59681232  0.42425453  0.64704334    -0.28800
C309        C  0.61568666  0.45064259  0.64292045     0.06800
C310        C  0.63957383  0.45737157  0.61609852    -0.27400
H311        H  0.56442381  0.37283518  0.65031207     0.11500
H312        H  0.57454806  0.33917423  0.62110170     0.12700
H313        H  0.68393495  0.46498472  0.56719182     0.11700
H314        H  0.69443905  0.43133926  0.54031549     0.11000
H315        H  0.68295296  0.38555707  0.53929911     0.16400
H316        H  0.60606861  0.32683612  0.58867040     0.12300
H317        H  0.57823799  0.41878139  0.66681104     0.15100
H318        H  0.65426517  0.47759453  0.61227892     0.14900
C319        C  0.43649868  0.73963946  0.19827429    -0.18000
C320        C  0.45630719  0.76552059  0.19653131    -0.20100
C321        C  0.45086305  0.78554864  0.20641190     0.20500
C322        C  0.42520219  0.77950734  0.21765192    -0.03100
C323        C  0.40519937  0.75341712  0.21888839    -0.06100
C324        C  0.41092527  0.73339706  0.20961912     0.20800
C325        C  0.37955607  0.74738733  0.23017355     0.18900
C326        C  0.37410653  0.76741383  0.24011917    -0.17600
C327        C  0.39399649  0.79328590  0.23962137    -0.19800
C328        C  0.41959123  0.79951164  0.22867937     0.20400
C329        C  0.43975539  0.82535964  0.22982517    -0.32800
C330        C  0.46539979  0.83147170  0.21937517     0.01100
C331        C  0.47073643  0.81149352  0.20667671    -0.24200
C332        C  0.39103546  0.70750220  0.21244801    -0.28800
C333        C  0.36544743  0.70136081  0.22387201     0.06800
C334        C  0.35985067  0.72144043  0.23210260    -0.27400
H335        H  0.44120367  0.72449873  0.19102840     0.11500
H336        H  0.47594075  0.76987604  0.18804514     0.12700
H337        H  0.35449497  0.76305969  0.24889362     0.11700
H338        H  0.38938563  0.80842450  0.24813341     0.11000
H339        H  0.43556222  0.84070714  0.23977869     0.16400
H340        H  0.49054599  0.81607339  0.19956732     0.12300
H341        H  0.39549533  0.69215456  0.20573478     0.15100
H342        H  0.34021342  0.71693456  0.24126624     0.14900
C343        C  0.55059578  0.21820219  0.54359651    -0.18000
C344        C  0.53128282  0.19313884  0.55790811    -0.20100
C345        C  0.53767602  0.17680479  0.58918278     0.20500
C346        C  0.56388173  0.18551258  0.60446371    -0.03100
C347        C  0.58339898  0.21070308  0.58943308    -0.06100
C348        C  0.57666434  0.22731135  0.55992555     0.20800
C349        C  0.60953608  0.21951955  0.60564232     0.18900
C350        C  0.61601463  0.20299996  0.63568102    -0.17600
C351        C  0.59666725  0.17817090  0.65112780    -0.19800
C352        C  0.57052874  0.16937081  0.63642322     0.20400
C353        C  0.55089248  0.14505097  0.65478526    -0.32800
C354        C  0.52461257  0.13651693  0.64150842     0.01100
C355        C  0.51825866  0.15228764  0.60721142    -0.24200
C356        C  0.59598326  0.25294237  0.54899148    -0.28800
C357        C  0.62200146  0.26210057  0.56666381     0.06800
C358        C  0.62865116  0.24497401  0.59343717    -0.27400
H359        H  0.54507930  0.23061242  0.52060205     0.11500
H360        H  0.51125858  0.18672456  0.54563821     0.12700
H361        H  0.63601186  0.20948243  0.64837463     0.11700
H362        H  0.60211742  0.16599309  0.67544257     0.11000
H363        H  0.55606824  0.13302749  0.68070025     0.16400
H364        H  0.49810324  0.14598524  0.59670035     0.12300
H365        H  0.59068282  0.26589674  0.52788748     0.15100
H366        H  0.64858993  0.25176073  0.60742628     0.14900
C367        C  0.49800663  0.94873509  0.91483716    -0.18000
C368        C  0.48668280  0.95835249  0.87467549    -0.20100
C369        C  0.48442067  0.97992240  0.89152977     0.20500
C370        C  0.49342726  0.99166912  0.94997635    -0.03100
C371        C  0.50458049  0.98171859  0.99094255    -0.06100
C372        C  0.50714099  0.96032964  0.97298349     0.20800
C373        C  0.51358480  0.99346726  0.04936620     0.18900
C374        C  0.51133381  0.01505041  0.06622630    -0.17600
C375        C  0.50064167  0.02509096  0.02547590    -0.19800
C376        C  0.49173921  0.01363843  0.96712838     0.20400
C377        C  0.48166372  0.02407110  0.92533336    -0.32800
C378        C  0.47280519  0.01267750  0.86657761     0.01100
C379        C  0.47387079  0.99026825  0.85055876    -0.24200
C380        C  0.51923147  0.95122772  0.01288508    -0.28800
C381        C  0.52859600  0.96295023  0.07117651     0.06800
C382        C  0.52519793  0.98383160  0.08930336    -0.27400
H383        H  0.49977277  0.93227639  0.90019427     0.11500
H384        H  0.47997662  0.94908313  0.83002918     0.12700
H385        H  0.51816438  0.02440521  0.11075372     0.11700
H386        H  0.49948597  0.04196210  0.03952729     0.11000
H387        H  0.48095866  0.04129504  0.93840538     0.16400
H388        H  0.46742440  0.98147126  0.80537924     0.12300
H389        H  0.52161793  0.93513447  0.99821504     0.15100
H390        H  0.53248785  0.99324022  0.13364174     0.14900
C391        C  0.48391128  0.01950223  0.41313819    -0.18000
C392        C  0.49886710  0.01260345  0.37729712    -0.20100
C393        C  0.50484033  0.99400233  0.39698231     0.20500
C394        C  0.49567605  0.98226969  0.45341885    -0.03100
C395        C  0.48065898  0.98924583  0.48955978    -0.06100
C396        C  0.47473207  0.00793594  0.46927265     0.20800
C397        C  0.47155431  0.97747303  0.54594883     0.18900
C398        C  0.47720965  0.95864750  0.56536825    -0.17600
C399        C  0.49194513  0.95161263  0.52937672    -0.19800
C400        C  0.50129038  0.96336341  0.47354695     0.20400
C401        C  0.51565888  0.95606654  0.43690725    -0.32800
C402        C  0.52430136  0.96712468  0.37989676     0.01100
C403        C  0.51925520  0.98645098  0.36064911    -0.24200
C404        C  0.45984852  0.01479652  0.50567003    -0.28800
C405        C  0.45116765  0.00345320  0.56238776     0.06800
C406        C  0.45702726  0.98477677  0.58210560    -0.27400
H407        H  0.47952057  0.03388829  0.39694782     0.11500
H408        H  0.50564982  0.02172023  0.33402709     0.12700
H409        H  0.47022814  0.94935883  0.60838931     0.11700
H410        H  0.49598850  0.93693087  0.54514448     0.11000
H411        H  0.51941869  0.94110839  0.45210734     0.16400
H412        H  0.52563077  0.99485171  0.31649983     0.12300
H413        H  0.45543625  0.02930409  0.49040295     0.15100
H414        H  0.45014960  0.97580471  0.62553142     0.14900
C415        C  0.21091944  0.66773107  0.21186719    -0.18000
C416        C  0.23621482  0.67222196  0.20754720    -0.20100
C417        C  0.24173935  0.65260862  0.22076218     0.20500
C418        C  0.22159233  0.62813403  0.23770177    -0.03100
C419        C  0.19611669  0.62364529  0.24234300    -0.06100
C420        C  0.19077714  0.64358226  0.22964645     0.20800
C421        C  0.17610314  0.59935551  0.26073765     0.18900
C422        C  0.18154063  0.57962169  0.27301832    -0.17600
C423        C  0.20676790  0.58403188  0.26809182    -0.19800
C424        C  0.22695601  0.60826972  0.25100578     0.20400
C425        C  0.25246829  0.61311150  0.24806924    -0.32800
C426        C  0.27276453  0.63765224  0.23260280     0.01100
C427        C  0.26713430  0.65719003  0.21828476    -0.24200
C428        C  0.16552225  0.63917906  0.23621741    -0.28800
C429        C  0.14568873  0.61524473  0.25634326     0.06800
C430        C  0.15108954  0.59535017  0.26770389    -0.27400
H431        H  0.20716496  0.68323598  0.20196013     0.11500
H432        H  0.25150998  0.69111917  0.19437742     0.12700
H433        H  0.16631798  0.56084022  0.28702672     0.11700
H434        H  0.21054601  0.56857351  0.27834635     0.11000
H435        H  0.25655759  0.59792474  0.25912703     0.16400
H436        H  0.28255980  0.67615357  0.20583675     0.12300
H437        H  0.16151705  0.65463212  0.22762429     0.15100
H438        H  0.13583924  0.57675441  0.28268968     0.14900
C439        C  0.75341135  0.29875208  0.59842461    -0.18000
C440        C  0.77832826  0.30492502  0.61774750    -0.20100
C441        C  0.79637716  0.33016069  0.63866233     0.20500
C442        C  0.78935825  0.34944401  0.63969096    -0.03100
C443        C  0.76426959  0.34326917  0.61954651    -0.06100
C444        C  0.74618406  0.31775507  0.59929832     0.20800
C445        C  0.75718086  0.36250921  0.62051608     0.18900
C446        C  0.77528734  0.38775791  0.64139911    -0.17600
C447        C  0.80007591  0.39382206  0.66190815    -0.19800
C448        C  0.80727009  0.37478882  0.66153288     0.20400
C449        C  0.83192604  0.38055575  0.68313852    -0.32800
C450        C  0.83903205  0.36139043  0.68224570     0.01100
C451        C  0.82119065  0.33632100  0.65928817    -0.24200
C452        C  0.72103114  0.31153309  0.58135696    -0.28800
C453        C  0.71355451  0.33044107  0.58324167     0.06800
C454        C  0.73196274  0.35603776  0.60187381    -0.27400
H455        H  0.73973531  0.27905884  0.58307600     0.11500
H456        H  0.78341053  0.28989020  0.61683814     0.12700
H457        H  0.77017946  0.40277085  0.64250238     0.11700
H458        H  0.81358906  0.41339190  0.67835390     0.11000
H459        H  0.84558331  0.39994212  0.70051961     0.16400
H460        H  0.82637359  0.32134596  0.65888905     0.12300
H461        H  0.70712855  0.29177103  0.56689158     0.15100
H462        H  0.72646480  0.37076784  0.60380681     0.14900
C463        C  0.02767122  0.53474598  0.94500825    -0.18000
C464        C  0.01873891  0.51343866  0.90419019    -0.20100
C465        C  0.99997259  0.48853735  0.92167999     0.20500
C466        C  0.99048279  0.48506650  0.98139778    -0.03100
C467        C  0.99970001  0.50653855  0.02280014    -0.06100
C468        C  0.01816436  0.53156027  0.00430239     0.20800
C469        C  0.99004435  0.50301229  0.08228483     0.18900
C470        C  0.97144086  0.47811266  0.10004961    -0.17600
C471        C  0.96211427  0.45693933  0.05891914    -0.19800
C472        C  0.97134004  0.46024711  0.99938567     0.20400
C473        C  0.96121779  0.43930056  0.95711085    -0.32800
C474        C  0.97007630  0.44263888  0.89700586     0.01100
C475        C  0.98995991  0.46722226  0.88006771    -0.24200
C476        C  0.02646664  0.55296355  0.04504212    -0.28800
C477        C  0.01675208  0.54964783  0.10438827     0.06800
C478        C  0.99876344  0.52446885  0.12267181    -0.27400
H479        H  0.04189197  0.55378384  0.92999171     0.11500
H480        H  0.02624013  0.51651487  0.85856777     0.12700
H481        H  0.96382878  0.47506152  0.14556978     0.11700
H482        H  0.94746261  0.43799571  0.07350913     0.11000
H483        H  0.94600485  0.42041667  0.97069958     0.16400
H484        H  0.99674476  0.47001947  0.83376061     0.12300
H485        H  0.04032133  0.57220631  0.03036362     0.15100
H486        H  0.99094238  0.52158393  0.16799001     0.14900
C487        C  0.00106379  0.51833950  0.57147022    -0.18000
C488        C  0.99294873  0.49690986  0.60793461    -0.20100
C489        C  0.98148930  0.47188954  0.58144629     0.20500
C490        C  0.97695622  0.46821400  0.51791211    -0.03100
C491        C  0.98489180  0.48985365  0.48110184    -0.06100
C492        C  0.99765041  0.51503781  0.50803876     0.20800
C493        C  0.98117443  0.48639330  0.41727119     0.18900
C494        C  0.96869721  0.46121144  0.39114816    -0.17600
C495        C  0.96096368  0.43973371  0.42769468    -0.19800
C496        C  0.96549284  0.44307404  0.49099232     0.20400
C497        C  0.95964076  0.42191607  0.52762926    -0.32800
C498        C  0.96523769  0.42569098  0.59074588     0.01100
C499        C  0.97542059  0.45065423  0.61732373    -0.24200
C500        C  0.00793550  0.53654562  0.47100472    -0.28800
C501        C  0.00548274  0.53330286  0.40739818     0.06800
C502        C  0.99118160  0.50822703  0.38072532    -0.27400
H503        H  0.01062423  0.53755466  0.59277313     0.11500
H504        H  0.99634494  0.49997710  0.65674126     0.12700
H505        H  0.96557536  0.45817353  0.34227962     0.11700
H506        H  0.95199117  0.42056113  0.40628128     0.11000
H507        H  0.95143750  0.40269714  0.50676538     0.14200
H508        H  0.97941916  0.45378584  0.66596951     0.12300
H509        H  0.01876952  0.55588567  0.49157872     0.15100
H510        H  0.98938905  0.50570760  0.33155429     0.14900
C511        C  0.11112594  0.42176235  0.64433395    -0.18000
C512        C  0.08665552  0.41958160  0.64187015    -0.20100
C513        C  0.06966041  0.40916119  0.69044611     0.20500
C514        C  0.07759592  0.40140529  0.74260891    -0.03100
C515        C  0.10212937  0.40317556  0.74459249    -0.06100
C516        C  0.11889690  0.41325447  0.69507773     0.20800
C517        C  0.10957782  0.39426877  0.79544553     0.18900
C518        C  0.09286375  0.38451017  0.84473323    -0.17600
C519        C  0.06871322  0.38308102  0.84314959    -0.19800
C520        C  0.06071122  0.39112779  0.79197780     0.20400
C521        C  0.03576637  0.38810235  0.78823662    -0.32800
C522        C  0.02726397  0.39444044  0.73494811     0.01100
C523        C  0.04453552  0.40547968  0.68683875    -0.24200
C524        C  0.14294617  0.41428996  0.69668947    -0.28800
C525        C  0.15029468  0.40469691  0.74644077     0.06800
C526        C  0.13335504  0.39478246  0.79572006    -0.27400
H527        H  0.12377201  0.42963131  0.60598316     0.11500
H528        H  0.08088261  0.42573329  0.60158174     0.12700
H529        H  0.09836361  0.37772516  0.88433401     0.11700
H530        H  0.05605762  0.37516134  0.88146027     0.11000
H531        H  0.02244891  0.37935956  0.82512164     0.16400
H532        H  0.03809720  0.41051717  0.64573169     0.12300
H533        H  0.15588378  0.42257900  0.65901347     0.15100
H534        H  0.13829503  0.38683913  0.83395562     0.14900
C535        C  0.28932494  0.46632418  0.92766842    -0.18000
C536        C  0.30704450  0.47050325  0.97458753    -0.20100
C537        C  0.30250687  0.45048052  0.01361853     0.20500
C538        C  0.27963233  0.42619194  0.00666759    -0.03100
C539        C  0.26163843  0.42198619  0.95933489    -0.06100
C540        C  0.26676613  0.44209744  0.91927161     0.20800
C541        C  0.23897121  0.39751069  0.95093382     0.18900
C542        C  0.23428723  0.37769106  0.99097006    -0.17600
C543        C  0.25217259  0.38189700  0.03806442    -0.19800
C544        C  0.27509294  0.40598908  0.04593897     0.20400
C545        C  0.29388325  0.41011664  0.09112058    -0.32800
C546        C  0.31717497  0.43410704  0.09650727     0.01100
C547        C  0.32088919  0.45425977  0.05842064    -0.24200
C548        C  0.24969616  0.43743304  0.87028347    -0.28800
C549        C  0.22756713  0.41300059  0.86068167     0.06800
C550        C  0.22192307  0.39317107  0.90151115    -0.27400
H551        H  0.29346492  0.48192574  0.89734770     0.11500
H552        H  0.32455395  0.48928224  0.97967043     0.12700
H553        H  0.21697269  0.35879839  0.98528987     0.11700
H554        H  0.24826512  0.36616764  0.06773536     0.11000
H555        H  0.29078370  0.39454345  0.12052297     0.16400
H556        H  0.33847660  0.47302573  0.06291176     0.12300
H557        H  0.25399532  0.45254673  0.83824030     0.15100
H558        H  0.20489310  0.37422069  0.89334635     0.14900
C559        C  0.27371310  0.36730359  0.53971250    -0.18000
C560        C  0.25768252  0.36627649  0.58672902    -0.20100
C561        C  0.24674155  0.38225091  0.58671612     0.20500
C562        C  0.25148406  0.39902516  0.53819191    -0.03100
C563        C  0.26768897  0.40005014  0.49060009    -0.06100
C564        C  0.27905085  0.38431546  0.49192033     0.20800
C565        C  0.27300757  0.41721718  0.44258321     0.18900
C566        C  0.26169904  0.43290441  0.44227607    -0.17600
C567        C  0.24568136  0.43194714  0.48960529    -0.19800
C568        C  0.24061941  0.41524349  0.53807405     0.20400
C569        C  0.22564716  0.41505704  0.58739600    -0.32800
C570        C  0.22175656  0.39908595  0.63698799     0.01100
C571        C  0.23183939  0.38230658  0.63542466    -0.24200
C572        C  0.29604111  0.38624003  0.44624639    -0.28800
C573        C  0.30200639  0.40369540  0.39891439     0.06800
C574        C  0.29000405  0.41880039  0.39666968    -0.27400
H575        H  0.28225325  0.35505128  0.54120216     0.11500
H576        H  0.25418377  0.35328155  0.62365548     0.12700
H577        H  0.26554117  0.44619990  0.40584940     0.11700
H578        H  0.23753443  0.44454790  0.48871413     0.11000
H579        H  0.21809923  0.42818508  0.58863272     0.16400
H580        H  0.22869125  0.36980021  0.67328099     0.12300
H581        H  0.30493601  0.37429783  0.44806653     0.15100
H582        H  0.29450792  0.43232814  0.36042245     0.14900
C583        C  0.88735432  0.59455149  0.30007629    -0.18000
C584        C  0.91230065  0.59840916  0.30881609    -0.20100
C585        C  0.92148758  0.58612494  0.26969739     0.20500
C586        C  0.90495927  0.56887787  0.22293028    -0.03100
C587        C  0.87960837  0.56466012  0.21475754    -0.06100
C588        C  0.87109705  0.57809718  0.25256015     0.20800
C589        C  0.86317719  0.54778856  0.16740695     0.18900
C590        C  0.87202619  0.53464634  0.12995859    -0.17600
C591        C  0.89735261  0.53920987  0.13728079    -0.19800
C592        C  0.91413187  0.55672873  0.18270271     0.20400
C593        C  0.94021307  0.56320379  0.18704026    -0.32800
C594        C  0.95691863  0.58112705  0.23200571     0.01100
C595        C  0.94726815  0.59173044  0.27466553    -0.24200
C596        C  0.84673265  0.57539441  0.24138904    -0.28800
C597        C  0.83016683  0.55883633  0.19395821     0.06800
C598        C  0.83845832  0.54480939  0.15760067    -0.27400
H599        H  0.88092555  0.60478578  0.32988788     0.11500
H600        H  0.92467794  0.61159898  0.34505158     0.12700
H601        H  0.85960860  0.52138537  0.09388028     0.11700
H602        H  0.90399784  0.52945175  0.10656370     0.11000
H603        H  0.94775055  0.55486069  0.15457992     0.16400
H604        H  0.96027229  0.60558124  0.30921278     0.12300
H605        H  0.84092706  0.58673865  0.26913373     0.15100
H606        H  0.82575328  0.53165900  0.12170920     0.14900
C607        C  0.71958278  0.59196528  0.33735582    -0.18000
C608        C  0.70516898  0.59215019  0.38677235    -0.20100
C609        C  0.70064085  0.57563020  0.43523295     0.20500
C610        C  0.71131214  0.55929133  0.43506316    -0.03100
C611        C  0.72588739  0.55912674  0.38519994    -0.06100
C612        C  0.72971086  0.57530032  0.33580832     0.20800
C613        C  0.73606060  0.54233850  0.38406775     0.18900
C614        C  0.73196766  0.52623160  0.43326063    -0.17600
C615        C  0.71739359  0.52631579  0.48267705    -0.19800
C616        C  0.70671922  0.54254368  0.48371621     0.20400
C617        C  0.69065300  0.54157983  0.53111263    -0.32800
C618        C  0.67890015  0.55686441  0.52950952     0.01100
C619        C  0.68470680  0.57442034  0.48257531    -0.24200
C620        C  0.74324949  0.57425176  0.28529513    -0.28800
C621        C  0.75310408  0.55732790  0.28348443     0.06800
C622        C  0.74971857  0.54163017  0.33325362    -0.27400
H623        H  0.72247608  0.60457116  0.29992452     0.11500
H624        H  0.69711191  0.60483895  0.38651590     0.12700
H625        H  0.73971355  0.51327829  0.43309588     0.11700
H626        H  0.71409438  0.51336389  0.51957960     0.11000
H627        H  0.68616573  0.52798041  0.56719686     0.16400
H628        H  0.67594162  0.58649898  0.48163297     0.12300
H629        H  0.74616648  0.58661722  0.24727497     0.15100
H630        H  0.75717599  0.52842638  0.33170474     0.14900
C631        C  0.74715802  0.58107436  0.92840378    -0.18000
C632        C  0.72850983  0.57715559  0.88336582    -0.20100
C633        C  0.70452101  0.55388023  0.87933113     0.20500
C634        C  0.69957874  0.53431113  0.92095077    -0.03100
C635        C  0.71849182  0.53808380  0.96568735    -0.06100
C636        C  0.74232463  0.56171402  0.97006117     0.20800
C637        C  0.71318711  0.51840264  0.00715445     0.18900
C638        C  0.68930019  0.49520185  0.00362876    -0.17600
C639        C  0.67060009  0.49156711  0.95981719    -0.19800
C640        C  0.67555526  0.51100295  0.91853006     0.20400
C641        C  0.65673107  0.50734250  0.87497398    -0.32800
C642        C  0.66124554  0.52641150  0.83240402     0.01100
C643        C  0.68535621  0.54976567  0.83484197    -0.24200
C644        C  0.76025864  0.56584099  0.01759728    -0.28800
C645        C  0.75445812  0.54648399  0.06012607     0.06800
C646        C  0.73130494  0.52262943  0.05332302    -0.27400
H647        H  0.76529134  0.59936941  0.93097911     0.11500
H648        H  0.73276384  0.59246393  0.85205277     0.12700
H649        H  0.68491610  0.48000173  0.03539419     0.11700
H650        H  0.65217193  0.47355237  0.95839627     0.11000
H651        H  0.63844483  0.48917449  0.87405380     0.16400
H652        H  0.68913831  0.56464760  0.80259732     0.12300
H653        H  0.77789932  0.58446703  0.02360443     0.15100
H654        H  0.72668558  0.50792776  0.08675523     0.14900
C655        C  0.59943247  0.68998001  0.59674180    -0.18000
C656        C  0.60354851  0.66893979  0.59453903    -0.20100
C657        C  0.59290886  0.64982082  0.63846504     0.20500
C658        C  0.57767147  0.65164999  0.68457488    -0.03100
C659        C  0.57341303  0.67294080  0.68665840    -0.06100
C660        C  0.58450890  0.69224795  0.64275208     0.20800
C661        C  0.55832253  0.67504279  0.73291677     0.18900
C662        C  0.54731742  0.65557985  0.77610137    -0.17600
C663        C  0.55157675  0.63450518  0.77408184    -0.19800
C664        C  0.56693060  0.63239154  0.72882091     0.20400
C665        C  0.57186676  0.61155231  0.72711413    -0.32800
C666        C  0.58728735  0.60973410  0.68127821     0.01100
C667        C  0.59750784  0.62905773  0.63710072    -0.24200
C668        C  0.58074808  0.71362651  0.64576912    -0.28800
C669        C  0.56588461  0.71616040  0.69192801     0.06800
C670        C  0.55465010  0.69659877  0.73530462    -0.27400
H671        H  0.60803560  0.70455846  0.56255308     0.11500
H672        H  0.61524662  0.66772462  0.55864760     0.12700
H673        H  0.53553444  0.65674565  0.81182331     0.11700
H674        H  0.54297565  0.61992696  0.80825198     0.11000
H675        H  0.56365527  0.59680334  0.76100989     0.16400
H676        H  0.60946969  0.62820899  0.60136039     0.12300
H677        H  0.58992205  0.72862229  0.61270622     0.15100
H678        H  0.54290537  0.69805115  0.77072730     0.14900
C679        C  0.53610716  0.79697555  0.01532853    -0.18000
C680        C  0.53578699  0.78130253  0.96627645    -0.20100
C681        C  0.55170132  0.79235657  0.91604127     0.20500
C682        C  0.56881295  0.81941690  0.91661654    -0.03100
C683        C  0.56919033  0.83518129  0.96608112    -0.06100
C684        C  0.55238354  0.82402986  0.01524047     0.20800
C685        C  0.58572467  0.86225585  0.96505396     0.18900
C686        C  0.60237837  0.87331859  0.91626696    -0.17600
C687        C  0.60195610  0.85778403  0.86742622    -0.19800
C688        C  0.58492045  0.83093241  0.86665881     0.20400
C689        C  0.58310474  0.81562436  0.81566427    -0.32800
C690        C  0.56529982  0.78886200  0.81306583     0.01100
C691        C  0.55019255  0.77712400  0.86429305    -0.24200
C692        C  0.55145389  0.84025068  0.06179242    -0.28800
C693        C  0.56693591  0.86740886  0.05878881     0.06800
C694        C  0.58461303  0.87802361  0.01137571    -0.27400
H695        H  0.52317752  0.78796922  0.05270194     0.11500
H696        H  0.52262920  0.76056927  0.96700377     0.12700
H697        H  0.61526848  0.89409690  0.91510857     0.11700
H698        H  0.61453506  0.86686132  0.82952580     0.11000
H699        H  0.59511209  0.82468723  0.77685142     0.16400
H700        H  0.53648080  0.75647114  0.86266229     0.12300
H701        H  0.53784048  0.83188433  0.09828318     0.15100
H702        H  0.59698181  0.89886910  0.00922618     0.14900
C703        C  0.50438777  0.79555206  0.51448483    -0.18000
C704        C  0.50235973  0.81073425  0.46972526    -0.20100
C705        C  0.52413468  0.82777060  0.43665663     0.20500
C706        C  0.54800569  0.82893765  0.44713172    -0.03100
C707        C  0.55002152  0.81337533  0.49226049    -0.06100
C708        C  0.52818897  0.79697826  0.52676306     0.20800
C709        C  0.57399255  0.81479443  0.50410375     0.18900
C710        C  0.59553827  0.83135073  0.46959616    -0.17600
C711        C  0.59353565  0.84679766  0.42494183    -0.19800
C712        C  0.56992735  0.84606365  0.41364657     0.20400
C713        C  0.56791632  0.86249195  0.37084019    -0.32800
C714        C  0.54425371  0.86212441  0.36220488     0.01100
C715        C  0.52244980  0.84409817  0.39447514    -0.24200
C716        C  0.53068083  0.78291615  0.57417612    -0.28800
C717        C  0.55461614  0.78470136  0.58741634     0.06800
C718        C  0.57611210  0.80028452  0.55143530    -0.27400
H719        H  0.48740411  0.78298171  0.54018904     0.11500
H720        H  0.48382236  0.80953094  0.46181318     0.12700
H721        H  0.61411245  0.83268608  0.47782738     0.11700
H722        H  0.61060672  0.85963512  0.39985257     0.11000
H723        H  0.58478670  0.87600377  0.34606788     0.16400
H724        H  0.50388493  0.84295868  0.38731842     0.12300
H725        H  0.51417342  0.77110517  0.60209556     0.15100
H726        H  0.59467966  0.80193806  0.56203333     0.14900
C727        C  0.67868321  0.10444472  0.29090248    -0.18000
C728        C  0.65740173  0.07909404  0.29066277    -0.20100
C729        C  0.65260155  0.06180632  0.24123741     0.20500
C730        C  0.66937038  0.07040206  0.19134287    -0.03100
C731        C  0.69093766  0.09592132  0.19176370    -0.06100
C732        C  0.69568471  0.11299726  0.24186350     0.20800
C733        C  0.70791074  0.10419828  0.14230840     0.18900
C734        C  0.70297002  0.08713199  0.09248320    -0.17600
C735        C  0.68157111  0.06200452  0.09184870    -0.19800
C736        C  0.66480442  0.05342215  0.14119695     0.20400
C737        C  0.64376286  0.02802072  0.14131706    -0.32800
C738        C  0.62705990  0.01887955  0.19114388     0.01100
C739        C  0.63156338  0.03606942  0.24095481    -0.24200
C740        C  0.71747998  0.13816950  0.24231652    -0.28800
C741        C  0.73497786  0.14643346  0.19376428     0.06800
C742        C  0.72977228  0.12921198  0.14377500    -0.27400
H743        H  0.68198980  0.11729614  0.32979607     0.11500
H744        H  0.64476951  0.07296828  0.32934375     0.12700
H745        H  0.71575170  0.09317382  0.05406644     0.11700
H746        H  0.67827489  0.04917302  0.05291444     0.11000
H747        H  0.64068131  0.01521011  0.10246571     0.16400
H748        H  0.61884696  0.02943391  0.27947263     0.12300
H749        H  0.72079064  0.15127278  0.28065382     0.15100
H750        H  0.74312867  0.13495194  0.10651784     0.14900
C751        C  0.88900061  0.25823126  0.43625484    -0.18000
C752        C  0.87460897  0.24372421  0.38479016    -0.20100
C753        C  0.84885011  0.23778548  0.37587111     0.20500
C754        C  0.83715024  0.24574888  0.42030325    -0.03100
C755        C  0.85173539  0.26052298  0.47212141    -0.06100
C756        C  0.87790733  0.26715448  0.47944686     0.20800
C757        C  0.84045628  0.26951643  0.51525271     0.18900
C758        C  0.81444589  0.26292891  0.50714241    -0.17600
C759        C  0.79992750  0.24813956  0.45596051    -0.19800
C760        C  0.81118796  0.23974957  0.41189916     0.20400
C761        C  0.79725413  0.22617499  0.35871409    -0.32800
C762        C  0.80918934  0.21911737  0.31342516     0.01100
C763        C  0.83484068  0.22469582  0.32250928    -0.24200
C764        C  0.89290661  0.28361906  0.52817744    -0.28800
C765        C  0.88224373  0.29384375  0.56947624     0.06800
C766        C  0.85572756  0.28593215  0.56405368    -0.27400
H767        H  0.90903804  0.26305205  0.44146086     0.11500
H768        H  0.88379336  0.23758048  0.35135006     0.12700
H769        H  0.80547949  0.26966779  0.53975893     0.11700
H770        H  0.78003269  0.24370902  0.45021816     0.11000
H771        H  0.77750094  0.22199711  0.35130198     0.16400
H772        H  0.84395730  0.21917291  0.28746116     0.12300
H773        H  0.91325795  0.28940733  0.53239731     0.15100
H774        H  0.84737326  0.29377911  0.59555474     0.14900
C775        C  0.82414133  0.30719594  0.99362057    -0.18000
C776        C  0.81103667  0.28914134  0.03818655    -0.20100
C777        C  0.81254947  0.26652847  0.04065309     0.20500
C778        C  0.82694017  0.26172827  0.99693908    -0.03100
C779        C  0.84029573  0.28007019  0.95195807    -0.06100
C780        C  0.83905664  0.30298067  0.95094111     0.20800
C781        C  0.85525748  0.27575597  0.90890487     0.18900
C782        C  0.85627270  0.25280542  0.91077245    -0.17600
C783        C  0.84305662  0.23460877  0.95548874    -0.19800
C784        C  0.82851157  0.23896923  0.99916358     0.20400
C785        C  0.81610412  0.22143937  0.04601550    -0.32800
C786        C  0.80246868  0.22668261  0.09062862     0.01100
C787        C  0.80050635  0.24902701  0.08714994    -0.24200
C788        C  0.85310436  0.32159125  0.90805750    -0.28800
C789        C  0.86864379  0.31794297  0.86573744     0.06800
C790        C  0.86924983  0.29467620  0.86566939    -0.27400
H791        H  0.82292808  0.32467649  0.99311898     0.11500
H792        H  0.79999203  0.29303892  0.07127449     0.12700
H793        H  0.86756866  0.24906890  0.87810697     0.11700
H794        H  0.84448339  0.21725709  0.95636854     0.11000
H795        H  0.81783559  0.20430306  0.04921465     0.16400
H796        H  0.79012773  0.25308127  0.12186163     0.12300
H797        H  0.85199680  0.33914412  0.90803615     0.15100
H798        H  0.88096803  0.29154646  0.83301824     0.14900
C799        C  0.32349161  0.89123786  0.63969149    -0.18000
C800        C  0.30035867  0.86772936  0.64596690    -0.20100
C801        C  0.28415832  0.86427364  0.69505259     0.20500
C802        C  0.29151398  0.88462236  0.73864710    -0.03100
C803        C  0.31511844  0.90823310  0.73290852    -0.06100
C804        C  0.33099227  0.91160335  0.68279271     0.20800
C805        C  0.32259997  0.92858988  0.77670283     0.18900
C806        C  0.30631462  0.92514185  0.82557985    -0.17600
C807        C  0.28280414  0.90184927  0.83088902    -0.19800
C808        C  0.27522217  0.88146780  0.78769639     0.20400
C809        C  0.25163577  0.85804071  0.79266342    -0.32800
C810        C  0.24420812  0.83738804  0.74985361     0.01100
C811        C  0.26078080  0.84080989  0.70123339    -0.24200
C812        C  0.35372800  0.93549795  0.67578770    -0.28800
C813        C  0.36112283  0.95599615  0.71869549     0.06800
C814        C  0.34580710  0.95225308  0.76980938    -0.27400
H815        H  0.33547889  0.89352555  0.60095138     0.11500
H816        H  0.29501658  0.85231365  0.61206701     0.12700
H817        H  0.31163592  0.94057009  0.85942724     0.11700
H818        H  0.27053224  0.89977540  0.86886984     0.11000
H819        H  0.23899008  0.85601102  0.82976265     0.16400
H820        H  0.25577046  0.82506809  0.66853089     0.12300
H821        H  0.36544695  0.93841414  0.63609448     0.15100
H822        H  0.35119649  0.96819323  0.80224622     0.14900
C823        C  0.17324234  0.71375760  0.04941944    -0.18000
C824        C  0.18731956  0.73042165  0.00271901    -0.20100
C825        C  0.17661850  0.74247001  0.96832284     0.20500
C826        C  0.15177744  0.73825899  0.98254478    -0.03100
C827        C  0.13753396  0.72134698  0.02934980    -0.06100
C828        C  0.14813770  0.70872613  0.06251738     0.20800
C829        C  0.11220618  0.71623257  0.04108992     0.18900
C830        C  0.10172610  0.72875560  0.00801646    -0.17600
C831        C  0.11582069  0.74552324  0.96197471    -0.19800
C832        C  0.14059794  0.74999004  0.94811951     0.20400
C833        C  0.15374378  0.76489250  0.89839678    -0.32800
C834        C  0.17783579  0.76813913  0.88203507     0.01100
C835        C  0.18962579  0.75757230  0.91813214    -0.24200
C836        C  0.13298573  0.69051340  0.10613352    -0.28800
C837        C  0.10720726  0.68441093  0.11545689     0.06800
C838        C  0.09729691  0.69784981  0.08380007    -0.27400
H839        H  0.18175617  0.70430981  0.07431693     0.11500
H840        H  0.20636126  0.73342749  0.99260939     0.12700
H841        H  0.08233916  0.72508961  0.01676407     0.11700
H842        H  0.10703564  0.75445585  0.93605946     0.11000
H843        H  0.14462763  0.77288256  0.87019207     0.16400
H844        H  0.20808659  0.75980536  0.90494761     0.12300
H845        H  0.14064876  0.68004565  0.13005394     0.15100
H846        H  0.07750839  0.69331800  0.09107517     0.14900
C847        C  0.13779271  0.74794879  0.50621881    -0.18000
C848        C  0.12495542  0.72922135  0.45908090    -0.20100
C849        C  0.12161399  0.70426116  0.46290110     0.20500
C850        C  0.13120900  0.69824021  0.51530922    -0.03100
C851        C  0.14417058  0.71709352  0.56271370    -0.06100
C852        C  0.14761796  0.74216283  0.55824479     0.20800
C853        C  0.15374031  0.71078203  0.61458289     0.18900
C854        C  0.15038953  0.68594289  0.61894695    -0.17600
C855        C  0.13762799  0.66738731  0.57227640    -0.19800
C856        C  0.12800655  0.67335956  0.52041962     0.20400
C857        C  0.11542197  0.65476846  0.47356027    -0.32800
C858        C  0.10589644  0.66030727  0.42040302     0.01100
C859        C  0.10907260  0.68526817  0.41544239    -0.24200
C860        C  0.16069064  0.76077645  0.60599993    -0.28800
C861        C  0.16992828  0.75427713  0.65815571     0.06800
C862        C  0.16646198  0.72930515  0.66151328    -0.27400
H863        H  0.14008346  0.76700177  0.50188048     0.11500
H864        H  0.11769703  0.73430611  0.41950368     0.12700
H865        H  0.15764893  0.68084895  0.65853195     0.11700
H866        H  0.13532270  0.64832699  0.57670900     0.11000
H867        H  0.11345065  0.63586235  0.47847936     0.16400
H868        H  0.10190278  0.68990160  0.37496233     0.12300
H869        H  0.16322903  0.77999281  0.60323768     0.15100
H870        H  0.17380259  0.72428553  0.70114188     0.14900
C871        C  0.34471208  0.26974114  0.24992959    -0.18000
C872        C  0.34874470  0.24869521  0.24403430    -0.20100
C873        C  0.37058336  0.25131324  0.21421131     0.20500
C874        C  0.38817921  0.27519726  0.18863241    -0.03100
C875        C  0.38406684  0.29644773  0.19443763    -0.06100
C876        C  0.36243961  0.29375927  0.22604877     0.20800
C877        C  0.40188128  0.32050351  0.16981525     0.18900
C878        C  0.42341586  0.32291736  0.13884829    -0.17600
C879        C  0.42750741  0.30186729  0.13314809    -0.19800
C880        C  0.41011341  0.27799060  0.15820671     0.20400
C881        C  0.41442497  0.25697265  0.15405897    -0.32800
C882        C  0.39721574  0.23324928  0.18041556     0.01100
C883        C  0.37526613  0.23056191  0.21011668    -0.24200
C884        C  0.35928037  0.31529897  0.23469647    -0.28800
C885        C  0.37733458  0.33956140  0.21192884     0.06800
C886        C  0.39823572  0.34186433  0.17810670    -0.27400
H887        H  0.32790488  0.26733160  0.27396498     0.11500
H888        H  0.33494604  0.23045070  0.26351176     0.12700
H889        H  0.43729592  0.34120158  0.11967834     0.11700
H890        H  0.44443484  0.30434041  0.10958125     0.11000
H891        H  0.43146532  0.25921224  0.13142493     0.16400
H892        H  0.36176467  0.21223338  0.22979114     0.12300
H893        H  0.34293267  0.31329586  0.26018586     0.15100
H894        H  0.41223783  0.36050326  0.16060783     0.14900
C895        C  0.43504620  0.17431281  0.43575695    -0.18000
C896        C  0.43693858  0.16042142  0.48411280    -0.20100
C897        C  0.42334656  0.13321743  0.48162462     0.20500
C898        C  0.40755347  0.11992957  0.42985019    -0.03100
C899        C  0.40583579  0.13394054  0.38079452    -0.06100
C900        C  0.41966447  0.16128172  0.38378938     0.20800
C901        C  0.39065654  0.12058160  0.32835176     0.18900
C902        C  0.37693992  0.09340063  0.32584637    -0.17600
C903        C  0.37843034  0.07954808  0.37462308    -0.19800
C904        C  0.39380643  0.09263778  0.42656668     0.20400
C905        C  0.39602822  0.07884689  0.47468580    -0.32800
C906        C  0.41217241  0.09180534  0.52614268     0.01100
C907        C  0.42562115  0.11909285  0.52939738    -0.24200
C908        C  0.41834352  0.17508082  0.33423817    -0.28800
C909        C  0.40384324  0.16187888  0.28125139     0.06800
C910        C  0.38986981  0.13462676  0.27889584    -0.27400
H911        H  0.44586788  0.19529344  0.43873701     0.11500
H912        H  0.44918526  0.17098296  0.52335197     0.12700
H913        H  0.36519404  0.08284651  0.28596840     0.11700
H914        H  0.36778078  0.05856509  0.37141408     0.11000
H915        H  0.38556355  0.05786433  0.47113792     0.16400
H916        H  0.43817090  0.12933719  0.56848938     0.12300
H917        H  0.42940009  0.19607867  0.33585643     0.15100
H918        H  0.37863015  0.12439560  0.23812996     0.14900
C919        C  0.47869949  0.17392990  0.00418689    -0.18000
C920        C  0.48465138  0.16149605  0.95792134    -0.20100
C921        C  0.46558515  0.14512477  0.91468371     0.20500
C922        C  0.44049810  0.14185513  0.91673937    -0.03100
C923        C  0.43449435  0.15446439  0.96339058    -0.06100
C924        C  0.45360168  0.17021042  0.00786403     0.20800
C925        C  0.40914817  0.15054938  0.96685458     0.18900
C926        C  0.39027833  0.13461117  0.92273261    -0.17600
C927        C  0.39626194  0.12215014  0.87637345    -0.19800
C928        C  0.42121522  0.12538908  0.87335103     0.20400
C929        C  0.42704546  0.11193265  0.82884353    -0.32800
C930        C  0.45177732  0.11442985  0.82802368     0.01100
C931        C  0.47102362  0.13144108  0.87047330    -0.24200
C932        C  0.44697697  0.18105079  0.05665187    -0.28800
C933        C  0.42157192  0.17640102  0.06145927     0.06800
C934        C  0.40288907  0.16175756  0.01580283    -0.27400
H935        H  0.49358672  0.18603906  0.03782882     0.11500
H936        H  0.50404574  0.16428463  0.95666498     0.12700
H937        H  0.37073789  0.13139478  0.92472911     0.11700
H938        H  0.38122820  0.10961277  0.84347817     0.11000
H939        H  0.41212387  0.09887212  0.79629736     0.16400
H940        H  0.49026029  0.13378581  0.86968311     0.12300
H941        H  0.46124362  0.19223517  0.09235538     0.15100
H942        H  0.38321447  0.15800133  0.02022047     0.14900
loop_ 
_geom_bond_atom_site_label_1 
_geom_bond_atom_site_label_2 
_geom_bond_distance 
_geom_bond_site_symmetry_2 
_ccdc_geom_bond_type 
C1            C2   1.408       .  A
C1            C6   1.411       .  A
C1          C882   1.486       .  S
C2            C3   1.401       .  A
C2            H7   1.084       .  S
C3            C4   1.399       .  A
C3          C933   1.472       .  S
C4            C5   1.401       .  A
C4            H8   1.085       .  S
C5            C6   1.406       .  A
C5          C909   1.484       .  S
C6            H9   1.084       .  S
C10          C11   1.418       .  A
C10          C15   1.415       .  A
C10         C810   1.499       .  S
C11          C12   1.406       .  A
C11          H16   1.082       .  S
C12          C13   1.402       .  A
C12         C861   1.489       .  S
C13          C14   1.399       .  A
C13          H17   1.085       .  S
C14          C15   1.402       .  A
C14         C834   1.480       .  S
C15          H18   1.083       .  S
C19          C20   1.416       .  A
C19          C24   1.411       .  A
C19         C741   1.499       .  S
C20          C21   1.406       .  A
C20          H25   1.083       .  S
C21          C22   1.400       .  A
C21         C786   1.480       .  S
C22          C23   1.400       .  A
C22          H26   1.085       .  S
C23          C24   1.402       .  A
C23         C762   1.477       .  S
C24          H27   1.083       .  S
C28          C29   1.418       .  A
C28          C33   1.415       .  A
C28         C669   1.501       .  S
C29          C30   1.406       .  A
C29          H34   1.083       .  S
C30          C31   1.400       .  A
C30         C717   1.489       .  S
C31          C32   1.407       .  A
C31          H35   1.084       .  S
C32          C33   1.408       .  A
C32         C690   1.490       .  S
C33          H36   1.083       .  S
C37          C38   1.416       .  A
C37          C42   1.406       .  A
C37         C597   1.491       .  S
C38          C39   1.410       .  A
C38          H43   1.083       .  S
C39          C40   1.401       .  A
C39         C645   1.480       .  S
C40          C41   1.397       .  A
C40          H44   1.085       .  S
C41          C42   1.396       .  A
C41         C621   1.477       .  S
C42          H45   1.083       .  S
C46          C47   1.416       .  A
C46          C51   1.412       .  A
C46         C525   1.497       .  S
C47          C48   1.407       .  A
C47          H52   1.082       .  S
C48          C49   1.401       .  A
C48         C570   1.485       .  S
C49          C50   1.396       .  A
C49          H53   1.085       .  S
C50          C51   1.399       .  A
C50         C549   1.471       .  S
C51          H54   1.083       .  S
O55         Ni61   1.929       .  S
O55          C76   1.274       .  A
O56         Ni79   1.927       .  S
O56          C65   1.274       .  A
O57         Ni61   1.912       .  S
O57         Ni79   1.914       .  S
O57         Ni73   1.924       .  S
O57          H80   0.967       .  S
C58         C450   1.482       .  S
C58          O75   1.277       .  A
C58          O67   1.279       .  A
O59         Ni78   1.929       .  S
O59          C65   1.273       .  A
O60         Ni78   1.904       .  S
O60          C62   1.270       .  A
Ni61         O64   1.937       .  S
Ni61         O66   1.909       .  S
C62         C789   1.487       .  S
C62          O72   1.275       .  A
O63         Ni79   1.920       .  S
O63          C69   1.274       .  A
O64          C69   1.275       .  A
C65         C474   1.486       .  S
O66          C68   1.271       .  A
O67         Ni78   1.928       .  S
C68         C498   1.482       .  S
C68          O74   1.277       .  A
C69         C522   1.480   1_655  S
H70          O71   0.965       .  S
O71         Ni79   1.909       .  S
O71         Ni73   1.890       .  S
O71         Ni78   1.889       .  S
O72         Ni73   1.936       .  S
Ni73         O77   1.903       .  S
Ni73         O75   1.920       .  S
O74         Ni79   1.940       .  S
C76         C765   1.481       .  S
C76          O77   1.269       .  A
O81         Ni87   1.931       .  S
O81         C102   1.276       .  A
O82        Ni105   1.913       .  S
O82          C91   1.265       .  A
O83         Ni87   1.915       .  S
O83        Ni105   1.914       .  S
O83         Ni99   1.928       .  S
O83         H106   0.966       .  S
C84         C429   1.476       .  S
C84         O101   1.279       .  A
C84          O93   1.277       .  A
O85        Ni104   1.923       .  S
O85          C91   1.269       .  A
O86        Ni104   1.900       .  S
O86          C88   1.269       .  A
Ni87         O90   1.944   1_455  S
Ni87         O92   1.916       .  S
C88         C858   1.499       .  S
C88          O98   1.278       .  A
O89        Ni105   1.902   1_655  S
O89          C95   1.268       .  A
O90          C95   1.276       .  A
C91         C501   1.473       .  S
O92          C94   1.271       .  A
O93        Ni104   1.912       .  S
C94         C477   1.490       .  S
C94         O100   1.276       .  A
C95         C594   1.468       .  S
H96          O97   0.966       .  S
O97        Ni105   1.899       .  S
O97         Ni99   1.898       .  S
O97        Ni104   1.891       .  S
O98         Ni99   1.955       .  S
Ni99        O103   1.914       .  S
Ni99        O101   1.926       .  S
O100       Ni105   1.945       .  S
C102        C837   1.483       .  S
C102        O103   1.272       .  A
O107       Ni113   1.923       .  S
O107        C128   1.272       .  A
O108       Ni131   1.936       .  S
O108        C117   1.275       .  A
O109       Ni113   1.913       .  S
O109       Ni131   1.921       .  S
O109       Ni125   1.924       .  S
O109        H132   0.960       .  S
C110        C354   1.486       .  S
C110        O127   1.276       .  A
C110        O119   1.278       .  A
O111       Ni130   1.935       .  S
O111        C117   1.273       .  A
O112       Ni130   1.904       .  S
O112        C114   1.270       .  A
Ni113       O116   1.932   1_545  S
Ni113       O118   1.898       .  S
C114        C930   1.481       .  S
C114        O124   1.275       .  A
O115       Ni131   1.921   1_565  S
O115        C121   1.274       .  A
O116        C121   1.273       .  A
C117        C378   1.497       .  S
O118        C120   1.268       .  A
O119       Ni130   1.927       .  S
C120        C405   1.471       .  S
C120        O126   1.276       .  A
C121        C813   1.477       .  S
H122        O123   0.968       .  S
O123       Ni131   1.913       .  S
O123       Ni125   1.905       .  S
O123       Ni130   1.902       .  S
O124       Ni125   1.932       .  S
Ni125       O129   1.918       .  S
Ni125       O127   1.919       .  S
O126       Ni131   1.942       .  S
C128        C906   1.491       .  S
C128        O129   1.272       .  A
O133       Ni139   1.929       .  S
O133        C154   1.275       .  A
O134       Ni157   1.920       .  S
O134        C143   1.271       .  A
O135       Ni139   1.904       .  S
O135       Ni157   1.919       .  S
O135       Ni151   1.928       .  S
O135        H158   0.963       .  S
C136        C330   1.473       .  S
C136        O153   1.283       .  A
C136        O145   1.280       .  A
O137       Ni156   1.905       .  S
O137        C143   1.266       .  A
O138       Ni156   1.900       .  S
O138        C140   1.267       .  A
Ni139       O142   1.935       .  S
Ni139       O144   1.918       .  S
C140        C714   1.501       .  S
C140        O150   1.281       .  A
O141       Ni157   1.925       .  S
O141        C147   1.277       .  A
O142        C147   1.278       .  A
C143        C402   1.475       .  S
O144        C146   1.270       .  A
O145       Ni156   1.913       .  S
C146        C381   1.500       .  S
C146        O152   1.277       .  A
C147        C738   1.495   1_565  S
H148        O149   0.966       .  S
O149       Ni157   1.917       .  S
O149       Ni151   1.887       .  S
O149       Ni156   1.879       .  S
O150       Ni151   1.967       .  S
Ni151       O155   1.917       .  S
Ni151       O153   1.928       .  S
O152       Ni157   1.958       .  S
C154        C693   1.486       .  S
C154        O155   1.272       .  A
C159        C306   1.487       .  S
C159        N160   1.362       .  A
C159        N164   1.362       .  A
N160        C161   1.361       .  A
C161        C453   1.486       .  S
C161        N162   1.358       .  A
N162        C163   1.357       .  A
C163        C357   1.485       .  S
C163        N164   1.360       .  A
C165        C282   1.483       .  S
C165        N166   1.361       .  A
C165        N170   1.360       .  A
N166        C167   1.360       .  A
C167        C426   1.480       .  S
C167        N168   1.355       .  A
N168        C169   1.354       .  A
C169        C333   1.477       .  S
C169        N170   1.357       .  A
O171       Ni177   1.909       .  S
O171        C192   1.266       .  A
O172       Ni195   1.908       .  S
O172        C181   1.270       .  A
O173       Ni177   1.882       .  S
O173       Ni195   1.893       .  S
O173       Ni189   1.917       .  S
O173        H196   0.966       .  S
C174        C885   1.482       .  S
C174        O191   1.278       .  A
C174        O183   1.278       .  A
O175       Ni194   1.933       .  S
O175        C181   1.276       .  A
O176       Ni194   1.917       .  S
O176        C178   1.271       .  A
Ni177       O180   1.911       .  S
Ni177       O182   1.897       .  S
C178        C234   1.487       .  S
C178        O188   1.270       .  A
O179       Ni195   1.935       .  S
O179        C185   1.281       .  A
O180        C185   1.277       .  A
C181        C573   1.483       .  S
O182        C184   1.268       .  A
O183       Ni194   1.929       .  S
C184        C546   1.482       .  S
C184        O190   1.274       .  A
C185        C285   1.481       .  S
H186        O187   0.967       .  S
O187       Ni195   1.917       .  S
O187       Ni189   1.915       .  S
O187       Ni194   1.902       .  S
O188       Ni189   1.923       .  S
Ni189       O193   1.930       .  S
Ni189       O191   1.922       .  S
O190       Ni195   1.938       .  S
C192        C258   1.484       .  S
C192        O193   1.272       .  A
O197       Ni203   1.924       .  S
O197        C218   1.273       .  A
O198       Ni221   1.927       .  S
O198        C207   1.277       .  A
O199       Ni203   1.900       .  S
O199       Ni221   1.913       .  S
O199       Ni215   1.916       .  S
O199        H222   0.966       .  S
C200        C309   1.489       .  S
C200        O217   1.278       .  A
C200        O209   1.280       .  A
O201       Ni220   1.921       .  S
O201        C207   1.272       .  A
O202       Ni220   1.901       .  S
O202        C204   1.270       .  A
Ni203       O206   1.919       .  S
Ni203       O208   1.912       .  S
C204        C642   1.495       .  S
C204        O214   1.279       .  A
O205       Ni221   1.946       .  S
O205        C211   1.285       .  A
O206        C211   1.276       .  A
C207        C261   1.485       .  S
O208        C210   1.270       .  A
O209       Ni220   1.930       .  S
C210        C237   1.486       .  S
C210        O216   1.273       .  A
C211        C666   1.499       .  S
H212        O213   0.965       .  S
O213       Ni221   1.923       .  S
O213       Ni215   1.887       .  S
O213       Ni220   1.877       .  S
O214       Ni215   1.951       .  S
Ni215       O219   1.901       .  S
Ni215       O217   1.930       .  S
O216       Ni221   1.936       .  S
C218        C618   1.473       .  S
C218        O219   1.268       .  A
C223        C224   1.399       .  A
C223        C228   1.403       .  A
C223        H239   1.084       .  S
C224        C225   1.404       .  A
C224        H240   1.084       .  S
C225        C235   1.402       .  A
C225        C226   1.410       .  A
C226        C232   1.412       .  A
C226        C227   1.414       .  A
C227        C229   1.411       .  A
C227        C228   1.412       .  A
C228        C236   1.404       .  A
C229        C238   1.405       .  A
C229        C230   1.404       .  A
C230        C231   1.400       .  A
C230        H241   1.084       .  S
C231        C232   1.404       .  A
C231        H242   1.083       .  S
C232        C233   1.406       .  A
C233        C234   1.409       .  A
C233        H243   1.084       .  S
C234        C235   1.410       .  A
C235        H244   1.084       .  S
C236        C237   1.408       .  A
C236        H245   1.084       .  S
C237        C238   1.409       .  A
C238        H246   1.084       .  S
C247        C248   1.400       .  A
C247        C252   1.405   1_554  A
C247        H263   1.084       .  S
C248        C249   1.403       .  A
C248        H264   1.084       .  S
C249        C259   1.408       .  A
C249        C250   1.414   1_554  A
C250        C256   1.408       .  A
C250        C251   1.413       .  A
C251        C253   1.414       .  A
C251        C252   1.408       .  A
C252        C260   1.402       .  A
C253        C262   1.405       .  A
C253        C254   1.402       .  A
C254        C255   1.398       .  A
C254        H265   1.084       .  S
C255        C256   1.404       .  A
C255        H266   1.084       .  S
C256        C257   1.399   1_556  A
C257        C258   1.410       .  A
C257        H267   1.084       .  S
C258        C259   1.407       .  A
C259        H268   1.084       .  S
C260        C261   1.412       .  A
C260        H269   1.084       .  S
C261        C262   1.405       .  A
C262        H270   1.084       .  S
C271        C272   1.397       .  A
C271        C276   1.403       .  A
C271        H287   1.084       .  S
C272        C273   1.403       .  A
C272        H288   1.084       .  S
C273        C283   1.400       .  A
C273        C274   1.411       .  A
C274        C280   1.411       .  A
C274        C275   1.411       .  A
C275        C277   1.412       .  A
C275        C276   1.411       .  A
C276        C284   1.399       .  A
C277        C286   1.405       .  A
C277        C278   1.404       .  A
C278        C279   1.400       .  A
C278        H289   1.084       .  S
C279        C280   1.404       .  A
C279        H290   1.084       .  S
C280        C281   1.405       .  A
C281        C282   1.409       .  A
C281        H291   1.084       .  S
C282        C283   1.407       .  A
C283        H292   1.084       .  S
C284        C285   1.407       .  A
C284        H293   1.084       .  S
C285        C286   1.408       .  A
C286        H294   1.084       .  S
C295        C296   1.399       .  A
C295        C300   1.404       .  A
C295        H311   1.083       .  S
C296        C297   1.404       .  A
C296        H312   1.084       .  S
C297        C307   1.404       .  A
C297        C298   1.411       .  A
C298        C304   1.412       .  A
C298        C299   1.414       .  A
C299        C301   1.411       .  A
C299        C300   1.412       .  A
C300        C308   1.405       .  A
C301        C310   1.405       .  A
C301        C302   1.405       .  A
C302        C303   1.401       .  A
C302        H313   1.084       .  S
C303        C304   1.404       .  A
C303        H314   1.084       .  S
C304        C305   1.406       .  A
C305        C306   1.409       .  A
C305        H315   1.084       .  S
C306        C307   1.408       .  A
C307        H316   1.084       .  S
C308        C309   1.408       .  A
C308        H317   1.084       .  S
C309        C310   1.411       .  A
C310        H318   1.084       .  S
C319        C320   1.398       .  A
C319        C324   1.403       .  A
C319        H335   1.084       .  S
C320        C321   1.403       .  A
C320        H336   1.084       .  S
C321        C331   1.399       .  A
C321        C322   1.411       .  A
C322        C328   1.412       .  A
C322        C323   1.409       .  A
C323        C325   1.410       .  A
C323        C324   1.412       .  A
C324        C332   1.401       .  A
C325        C334   1.399       .  A
C325        C326   1.403       .  A
C326        C327   1.397       .  A
C326        H337   1.084       .  S
C327        C328   1.403       .  A
C327        H338   1.084       .  S
C328        C329   1.400       .  A
C329        C330   1.405       .  A
C329        H339   1.084       .  S
C330        C331   1.406       .  A
C331        H340   1.084       .  S
C332        C333   1.406       .  A
C332        H341   1.084       .  S
C333        C334   1.407       .  A
C334        H342   1.084       .  S
C343        C344   1.400       .  A
C343        C348   1.404       .  A
C343        H359   1.083       .  S
C344        C345   1.404       .  A
C344        H360   1.084       .  S
C345        C355   1.404       .  A
C345        C346   1.411       .  A
C346        C352   1.412       .  A
C346        C347   1.413       .  A
C347        C349   1.410       .  A
C347        C348   1.412       .  A
C348        C356   1.406       .  A
C349        C358   1.402       .  A
C349        C350   1.403       .  A
C350        C351   1.398       .  A
C350        H361   1.084       .  S
C351        C352   1.403       .  A
C351        H362   1.084       .  S
C352        C353   1.403       .  A
C353        C354   1.408       .  A
C353        H363   1.084       .  S
C354        C355   1.410       .  A
C355        H364   1.084       .  S
C356        C357   1.408       .  A
C356        H365   1.084       .  S
C357        C358   1.409       .  A
C358        H366   1.084       .  S
C367        C368   1.403       .  A
C367        C372   1.406       .  A
C367        H383   1.083       .  S
C368        C369   1.405       .  A
C368        H384   1.083       .  S
C369        C379   1.413       .  A
C369        C370   1.413       .  A
C370        C376   1.410   1_565  A
C370        C371   1.421       .  A
C371        C373   1.413   1_556  A
C371        C372   1.411       .  A
C372        C380   1.411   1_556  A
C373        C382   1.413       .  A
C373        C374   1.405   1_565  A
C374        C375   1.403       .  A
C374        H385   1.083       .  S
C375        C376   1.405   1_554  A
C375        H386   1.083       .  S
C376        C377   1.410       .  A
C377        C378   1.412       .  A
C377        H387   1.084       .  S
C378        C379   1.410   1_545  A
C379        H388   1.084       .  S
C380        C381   1.412       .  A
C380        H389   1.084   1_554  S
C381        C382   1.412       .  A
C382        H390   1.084       .  S
C391        C392   1.399       .  A
C391        C396   1.404       .  A
C391        H407   1.084       .  S
C392        C393   1.403   1_545  A
C392        H408   1.084       .  S
C393        C403   1.404       .  A
C393        C394   1.413       .  A
C394        C400   1.410       .  A
C394        C395   1.408       .  A
C395        C397   1.412       .  A
C395        C396   1.411   1_565  A
C396        C404   1.401       .  A
C397        C406   1.398       .  A
C397        C398   1.402       .  A
C398        C399   1.395       .  A
C398        H409   1.084       .  S
C399        C400   1.403       .  A
C399        H410   1.084       .  S
C400        C401   1.396       .  A
C401        C402   1.407       .  A
C401        H411   1.084       .  S
C402        C403   1.405       .  A
C403        H412   1.084       .  S
C404        C405   1.407       .  A
C404        H413   1.084       .  S
C405        C406   1.403   1_545  A
C406        H414   1.085       .  S
C415        C416   1.398       .  A
C415        C420   1.403       .  A
C415        H431   1.084       .  S
C416        C417   1.404       .  A
C416        H432   1.084       .  S
C417        C427   1.399       .  A
C417        C418   1.409       .  A
C418        C424   1.413       .  A
C418        C419   1.409       .  A
C419        C421   1.410       .  A
C419        C420   1.413       .  A
C420        C428   1.403       .  A
C421        C430   1.398       .  A
C421        C422   1.403       .  A
C422        C423   1.397       .  A
C422        H433   1.084       .  S
C423        C424   1.402       .  A
C423        H434   1.084       .  S
C424        C425   1.401       .  A
C425        C426   1.405       .  A
C425        H435   1.084       .  S
C426        C427   1.409       .  A
C427        H436   1.084       .  S
C428        C429   1.406       .  A
C428        H437   1.084       .  S
C429        C430   1.407       .  A
C430        H438   1.084       .  S
C439        C440   1.398       .  A
C439        C444   1.404       .  A
C439        H455   1.084       .  S
C440        C441   1.403       .  A
C440        H456   1.084       .  S
C441        C451   1.401       .  A
C441        C442   1.411       .  A
C442        C448   1.412       .  A
C442        C443   1.413       .  A
C443        C445   1.411       .  A
C443        C444   1.411       .  A
C444        C452   1.402       .  A
C445        C454   1.406       .  A
C445        C446   1.404       .  A
C446        C447   1.400       .  A
C446        H457   1.084       .  S
C447        C448   1.404       .  A
C447        H458   1.083       .  S
C448        C449   1.406       .  A
C449        C450   1.408       .  A
C449        H459   1.084       .  S
C450        C451   1.408       .  A
C451        H460   1.084       .  S
C452        C453   1.409       .  A
C452        H461   1.084       .  S
C453        C454   1.409       .  A
C454        H462   1.084       .  S
C463        C464   1.402       .  A
C463        C468   1.405   1_556  A
C463        H479   1.083       .  S
C464        C465   1.405   1_455  A
C464        H480   1.083       .  S
C465        C475   1.409       .  A
C465        C466   1.412       .  A
C466        C472   1.411       .  A
C466        C467   1.416   1_556  A
C467        C469   1.411       .  A
C467        C468   1.412   1_655  A
C468        C476   1.409       .  A
C469        C478   1.404       .  A
C469        C470   1.404       .  A
C470        C471   1.399       .  A
C470        H481   1.084       .  S
C471        C472   1.404   1_554  A
C471        H482   1.084       .  S
C472        C473   1.404       .  A
C473        C474   1.408       .  A
C473        H483   1.084       .  S
C474        C475   1.408       .  A
C475        H484   1.084       .  S
C476        C477   1.410       .  A
C476        H485   1.084       .  S
C477        C478   1.410   1_455  A
C478        H486   1.084       .  S
C487        C488   1.395   1_455  A
C487        C492   1.402   1_455  A
C487        H503   1.084       .  S
C488        C489   1.402       .  A
C488        H504   1.084       .  S
C489        C499   1.397       .  A
C489        C490   1.410       .  A
C490        C496   1.412       .  A
C490        C491   1.411       .  A
C491        C493   1.412       .  A
C491        C492   1.412       .  A
C492        C500   1.398   1_655  A
C493        C502   1.406       .  A
C493        C494   1.405       .  A
C494        C495   1.401       .  A
C494        H505   1.084       .  S
C495        C496   1.405       .  A
C495        H506   1.084       .  S
C496        C497   1.406       .  A
C497        C498   1.410       .  A
C497        H507   1.084       .  S
C498        C499   1.406       .  A
C499        H508   1.084       .  S
C500        C501   1.403       .  A
C500        H509   1.085       .  S
C501        C502   1.407   1_455  A
C502        H510   1.084       .  S
C511        C512   1.399       .  A
C511        C516   1.404       .  A
C511        H527   1.084       .  S
C512        C513   1.404       .  A
C512        H528   1.084       .  S
C513        C523   1.402       .  A
C513        C514   1.410       .  A
C514        C520   1.414       .  A
C514        C515   1.414       .  A
C515        C517   1.409       .  A
C515        C516   1.412       .  A
C516        C524   1.405       .  A
C517        C526   1.404       .  A
C517        C518   1.404       .  A
C518        C519   1.400       .  A
C518        H529   1.084       .  S
C519        C520   1.403       .  A
C519        H530   1.083       .  S
C520        C521   1.407       .  A
C521        C522   1.405       .  A
C521        H531   1.084       .  S
C522        C523   1.408       .  A
C523        H532   1.085       .  S
C524        C525   1.410       .  A
C524        H533   1.083       .  S
C525        C526   1.412       .  A
C526        H534   1.083       .  S
C535        C536   1.394       .  A
C535        C540   1.401       .  A
C535        H551   1.084       .  S
C536        C537   1.402   1_556  A
C536        H552   1.084       .  S
C537        C547   1.394       .  A
C537        C538   1.408       .  A
C538        C544   1.414       .  A
C538        C539   1.411   1_554  A
C539        C541   1.412       .  A
C539        C540   1.413       .  A
C540        C548   1.397       .  A
C541        C550   1.407       .  A
C541        C542   1.405       .  A
C542        C543   1.403   1_556  A
C542        H553   1.083       .  S
C543        C544   1.405       .  A
C543        H554   1.083       .  S
C544        C545   1.411       .  A
C545        C546   1.408       .  A
C545        H555   1.084       .  S
C546        C547   1.408       .  A
C547        H556   1.085       .  S
C548        C549   1.399       .  A
C548        H557   1.085       .  S
C549        C550   1.406       .  A
C550        H558   1.084       .  S
C559        C560   1.396       .  A
C559        C564   1.403       .  A
C559        H575   1.084       .  S
C560        C561   1.402       .  A
C560        H576   1.084       .  S
C561        C571   1.400       .  A
C561        C562   1.411       .  A
C562        C568   1.412       .  A
C562        C563   1.413       .  A
C563        C565   1.413       .  A
C563        C564   1.410       .  A
C564        C572   1.399       .  A
C565        C574   1.409       .  A
C565        C566   1.405       .  A
C566        C567   1.402       .  A
C566        H577   1.084       .  S
C567        C568   1.405       .  A
C567        H578   1.083       .  S
C568        C569   1.408       .  A
C569        C570   1.408       .  A
C569        H579   1.084       .  S
C570        C571   1.406       .  A
C571        H580   1.085       .  S
C572        C573   1.407       .  A
C572        H581   1.084       .  S
C573        C574   1.409       .  A
C574        H582   1.084       .  S
C583        C584   1.397       .  A
C583        C588   1.404       .  A
C583        H599   1.084       .  S
C584        C585   1.402       .  A
C584        H600   1.084       .  S
C585        C595   1.402       .  A
C585        C586   1.414       .  A
C586        C592   1.411       .  A
C586        C587   1.411       .  A
C587        C589   1.413       .  A
C587        C588   1.408       .  A
C588        C596   1.398       .  A
C589        C598   1.407       .  A
C589        C590   1.404       .  A
C590        C591   1.401       .  A
C590        H601   1.083       .  S
C591        C592   1.404       .  A
C591        H602   1.084       .  S
C592        C593   1.403       .  A
C593        C594   1.405       .  A
C593        H603   1.085       .  S
C594        C595   1.402       .  A
C595        H604   1.085       .  S
C596        C597   1.411       .  A
C596        H605   1.084       .  S
C597        C598   1.408       .  A
C598        H606   1.084       .  S
C607        C608   1.395       .  A
C607        C612   1.402       .  A
C607        H623   1.084       .  S
C608        C609   1.403       .  A
C608        H624   1.084       .  S
C609        C619   1.395       .  A
C609        C610   1.409       .  A
C610        C616   1.414       .  A
C610        C611   1.409       .  A
C611        C613   1.411       .  A
C611        C612   1.413       .  A
C612        C620   1.398       .  A
C613        C622   1.401       .  A
C613        C614   1.404       .  A
C614        C615   1.400       .  A
C614        H625   1.084       .  S
C615        C616   1.403       .  A
C615        H626   1.084       .  S
C616        C617   1.405       .  A
C617        C618   1.405       .  A
C617        H627   1.084       .  S
C618        C619   1.405       .  A
C619        H628   1.085       .  S
C620        C621   1.403       .  A
C620        H629   1.085       .  S
C621        C622   1.406       .  A
C622        H630   1.084       .  S
C631        C632   1.406       .  A
C631        C636   1.406       .  A
C631        H647   1.083       .  S
C632        C633   1.406       .  A
C632        H648   1.083       .  S
C633        C643   1.417       .  A
C633        C634   1.414       .  A
C634        C640   1.408       .  A
C634        C635   1.415       .  A
C635        C637   1.412   1_556  A
C635        C636   1.412       .  A
C636        C644   1.413   1_556  A
C637        C646   1.397       .  A
C637        C638   1.401       .  A
C638        C639   1.394   1_554  A
C638        H649   1.084       .  S
C639        C640   1.403       .  A
C639        H650   1.084       .  S
C640        C641   1.395       .  A
C641        C642   1.411       .  A
C641        H651   1.084       .  S
C642        C643   1.412       .  A
C643        H652   1.084       .  S
C644        C645   1.409       .  A
C644        H653   1.084       .  S
C645        C646   1.402       .  A
C646        H654   1.085       .  S
C655        C656   1.398       .  A
C655        C660   1.403       .  A
C655        H671   1.084       .  S
C656        C657   1.404       .  A
C656        H672   1.084       .  S
C657        C667   1.400       .  A
C657        C658   1.407       .  A
C658        C664   1.415       .  A
C658        C659   1.418       .  A
C659        C661   1.410       .  A
C659        C660   1.412       .  A
C660        C668   1.405       .  A
C661        C670   1.412       .  A
C661        C662   1.407       .  A
C662        C663   1.405       .  A
C662        H673   1.083       .  S
C663        C664   1.405       .  A
C663        H674   1.083       .  S
C664        C665   1.417       .  A
C665        C666   1.410       .  A
C665        H675   1.084       .  S
C666        C667   1.415       .  A
C667        H676   1.084       .  S
C668        C669   1.409       .  A
C668        H677   1.084       .  S
C669        C670   1.414       .  A
C670        H678   1.084       .  S
C679        C680   1.406   1_554  A
C679        C684   1.406       .  A
C679        H695   1.083       .  S
C680        C681   1.407       .  A
C680        H696   1.083       .  S
C681        C691   1.414       .  A
C681        C682   1.412       .  A
C682        C688   1.411       .  A
C682        C683   1.415       .  A
C683        C685   1.410       .  A
C683        C684   1.414   1_556  A
C684        C692   1.414       .  A
C685        C694   1.397   1_556  A
C685        C686   1.402       .  A
C686        C687   1.395       .  A
C686        H697   1.084       .  S
C687        C688   1.402       .  A
C687        H698   1.084       .  S
C688        C689   1.399       .  A
C689        C690   1.405       .  A
C689        H699   1.085       .  S
C690        C691   1.411       .  A
C691        H700   1.084       .  S
C692        C693   1.410       .  A
C692        H701   1.084       .  S
C693        C694   1.407       .  A
C694        H702   1.085       .  S
C703        C704   1.398       .  A
C703        C708   1.402       .  A
C703        H719   1.084       .  S
C704        C705   1.405       .  A
C704        H720   1.084       .  S
C705        C715   1.400       .  A
C705        C706   1.407       .  A
C706        C712   1.416       .  A
C706        C707   1.420       .  A
C707        C709   1.411       .  A
C707        C708   1.414       .  A
C708        C716   1.406       .  A
C709        C718   1.414       .  A
C709        C710   1.407       .  A
C710        C711   1.407       .  A
C710        H721   1.083       .  S
C711        C712   1.406       .  A
C711        H722   1.083       .  S
C712        C713   1.422       .  A
C713        C714   1.412       .  A
C713        H723   1.083       .  S
C714        C715   1.413       .  A
C715        H724   1.085       .  S
C716        C717   1.404       .  A
C716        H725   1.085       .  S
C717        C718   1.410       .  A
C718        H726   1.084       .  S
C727        C728   1.403       .  A
C727        C732   1.406       .  A
C727        H743   1.083       .  S
C728        C729   1.405       .  A
C728        H744   1.083       .  S
C729        C739   1.413       .  A
C729        C730   1.413       .  A
C730        C736   1.408       .  A
C730        C731   1.416       .  A
C731        C733   1.412       .  A
C731        C732   1.409       .  A
C732        C740   1.408       .  A
C733        C742   1.404       .  A
C733        C734   1.402       .  A
C734        C735   1.398       .  A
C734        H745   1.084       .  S
C735        C736   1.404       .  A
C735        H746   1.084       .  S
C736        C737   1.401       .  A
C737        C738   1.411       .  A
C737        H747   1.084       .  S
C738        C739   1.411       .  A
C739        H748   1.084       .  S
C740        C741   1.414       .  A
C740        H749   1.083       .  S
C741        C742   1.408       .  A
C742        H750   1.083       .  S
C751        C752   1.398       .  A
C751        C756   1.403       .  A
C751        H767   1.084       .  S
C752        C753   1.403       .  A
C752        H768   1.084       .  S
C753        C763   1.402       .  A
C753        C754   1.413       .  A
C754        C760   1.412       .  A
C754        C755   1.412       .  A
C755        C757   1.412       .  A
C755        C756   1.411       .  A
C756        C764   1.401       .  A
C757        C766   1.405       .  A
C757        C758   1.404       .  A
C758        C759   1.400       .  A
C758        H769   1.084       .  S
C759        C760   1.404       .  A
C759        H770   1.083       .  S
C760        C761   1.405       .  A
C761        C762   1.405       .  A
C761        H771   1.084       .  S
C762        C763   1.404       .  A
C763        H772   1.085       .  S
C764        C765   1.407       .  A
C764        H773   1.084       .  S
C765        C766   1.407       .  A
C766        H774   1.084       .  S
C775        C776   1.396   1_556  A
C775        C780   1.403       .  A
C775        H791   1.084       .  S
C776        C777   1.402       .  A
C776        H792   1.084       .  S
C777        C787   1.400       .  A
C777        C778   1.413   1_554  A
C778        C784   1.412       .  A
C778        C779   1.414       .  A
C779        C781   1.413       .  A
C779        C780   1.409       .  A
C780        C788   1.397       .  A
C781        C790   1.412       .  A
C781        C782   1.405       .  A
C782        C783   1.404       .  A
C782        H793   1.083       .  S
C783        C784   1.406       .  A
C783        H794   1.083       .  S
C784        C785   1.410   1_556  A
C785        C786   1.407       .  A
C785        H795   1.084       .  S
C786        C787   1.402       .  A
C787        H796   1.085       .  S
C788        C789   1.409       .  A
C788        H797   1.084       .  S
C789        C790   1.410       .  A
C790        H798   1.084       .  S
C799        C800   1.399       .  A
C799        C804   1.404       .  A
C799        H815   1.084       .  S
C800        C801   1.404       .  A
C800        H816   1.084       .  S
C801        C811   1.405       .  A
C801        C802   1.411       .  A
C802        C808   1.410       .  A
C802        C803   1.414       .  A
C803        C805   1.413       .  A
C803        C804   1.411       .  A
C804        C812   1.402       .  A
C805        C814   1.408       .  A
C805        C806   1.404       .  A
C806        C807   1.401       .  A
C806        H817   1.083       .  S
C807        C808   1.405       .  A
C807        H818   1.083       .  S
C808        C809   1.406       .  A
C809        C810   1.412       .  A
C809        H819   1.083       .  S
C810        C811   1.410       .  A
C811        H820   1.083       .  S
C812        C813   1.407       .  A
C812        H821   1.085       .  S
C813        C814   1.405       .  A
C814        H822   1.084       .  S
C823        C824   1.404       .  A
C823        C828   1.406       .  A
C823        H839   1.084       .  S
C824        C825   1.406   1_554  A
C824        H840   1.083   1_554  S
C825        C835   1.411       .  A
C825        C826   1.412       .  A
C826        C832   1.412       .  A
C826        C827   1.415   1_556  A
C827        C829   1.411       .  A
C827        C828   1.413       .  A
C828        C836   1.412       .  A
C829        C838   1.399       .  A
C829        C830   1.403       .  A
C830        C831   1.396   1_554  A
C830        H841   1.084       .  S
C831        C832   1.402       .  A
C831        H842   1.084       .  S
C832        C833   1.400       .  A
C833        C834   1.402       .  A
C833        H843   1.085       .  S
C834        C835   1.408       .  A
C835        H844   1.084       .  S
C836        C837   1.409       .  A
C836        H845   1.084       .  S
C837        C838   1.405       .  A
C838        H846   1.085       .  S
C847        C848   1.407       .  A
C847        C852   1.407       .  A
C847        H863   1.083       .  S
C848        C849   1.407       .  A
C848        H864   1.083       .  S
C849        C859   1.418       .  A
C849        C850   1.413       .  A
C850        C856   1.408       .  A
C850        C851   1.416       .  A
C851        C853   1.411       .  A
C851        C852   1.412       .  A
C852        C860   1.416       .  A
C853        C862   1.397       .  A
C853        C854   1.401       .  A
C854        C855   1.394       .  A
C854        H865   1.084       .  S
C855        C856   1.403       .  A
C855        H866   1.084       .  S
C856        C857   1.397       .  A
C857        C858   1.411       .  A
C857        H867   1.084       .  S
C858        C859   1.413       .  A
C859        H868   1.084       .  S
C860        C861   1.411       .  A
C860        H869   1.084       .  S
C861        C862   1.404       .  A
C862        H870   1.085       .  S
C871        C872   1.399       .  A
C871        C876   1.404       .  A
C871        H887   1.084       .  S
C872        C873   1.403       .  A
C872        H888   1.084       .  S
C873        C883   1.404       .  A
C873        C874   1.412       .  A
C874        C880   1.411       .  A
C874        C875   1.414       .  A
C875        C877   1.413       .  A
C875        C876   1.410       .  A
C876        C884   1.402       .  A
C877        C886   1.408       .  A
C877        C878   1.404       .  A
C878        C879   1.401       .  A
C878        H889   1.083       .  S
C879        C880   1.404       .  A
C879        H890   1.083       .  S
C880        C881   1.405       .  A
C881        C882   1.408       .  A
C881        H891   1.084       .  S
C882        C883   1.406       .  A
C883        H892   1.084       .  S
C884        C885   1.409       .  A
C884        H893   1.084       .  S
C885        C886   1.406       .  A
C886        H894   1.084       .  S
C895        C896   1.401       .  A
C895        C900   1.404       .  A
C895        H911   1.083       .  S
C896        C897   1.404       .  A
C896        H912   1.083       .  S
C897        C907   1.409       .  A
C897        C898   1.413       .  A
C898        C904   1.409       .  A
C898        C899   1.414       .  A
C899        C901   1.412       .  A
C899        C900   1.411       .  A
C900        C908   1.406       .  A
C901        C910   1.403       .  A
C901        C902   1.403       .  A
C902        C903   1.398       .  A
C902        H913   1.084       .  S
C903        C904   1.404       .  A
C903        H914   1.084       .  S
C904        C905   1.401       .  A
C905        C906   1.412       .  A
C905        H915   1.084       .  S
C906        C907   1.409       .  A
C907        H916   1.084       .  S
C908        C909   1.406       .  A
C908        H917   1.084       .  S
C909        C910   1.407       .  A
C910        H918   1.085       .  S
C919        C920   1.397   1_554  A
C919        C924   1.402       .  A
C919        H935   1.084       .  S
C920        C921   1.403       .  A
C920        H936   1.084       .  S
C921        C931   1.399       .  A
C921        C922   1.410       .  A
C922        C928   1.413       .  A
C922        C923   1.411       .  A
C923        C925   1.412       .  A
C923        C924   1.413   1_556  A
C924        C932   1.400       .  A
C925        C934   1.405   1_556  A
C925        C926   1.404       .  A
C926        C927   1.401       .  A
C926        H937   1.083       .  S
C927        C928   1.404       .  A
C927        H938   1.083       .  S
C928        C929   1.407       .  A
C929        C930   1.407       .  A
C929        H939   1.084       .  S
C930        C931   1.408       .  A
C931        H940   1.084       .  S
C932        C933   1.402       .  A
C932        H941   1.085       .  S
C933        C934   1.404       .  A
C934        H942   1.084       .  S
