geometry optimzed in LAMMPS
_audit_creation_date              2020-12-01 
_audit_creation_method            'lammps2cif' 
_symmetry_space_group_name_H-M    'P1' 
_symmetry_Int_Tables_number       1 
_symmetry_cell_setting            triclinic 
loop_ 
_symmetry_equiv_pos_as_xyz 
  x,y,z 
_cell_length_a                    35.55735725 
_cell_length_b                    35.31341093735146 
_cell_length_c                    44.071669373498494 
_cell_angle_alpha                 92.88681673905548 
_cell_angle_beta                  90.0859876382706 
_cell_angle_gamma                 89.40430562754736 
loop_ 
_atom_site_label 
_atom_site_type_symbol 
_atom_site_fract_x 
_atom_site_fract_y 
_atom_site_fract_z 
_atom_site_charge 
C1          C  0.27362987  0.99030310  0.04746292     0.86300
C2          C  0.24665437  0.02428062  0.04391855    -0.54000
C3          C  0.22435887  0.02229353  0.52035177     0.09200
C4          C  0.23611136  0.98805177  0.49952994     0.20100
C5          C  0.24795840  0.95555387  0.04170323    -0.54700
C6          C  0.22796828  0.95358718  0.51850425     0.09300
C7          C  0.29925317  0.99024038  0.01951888    -0.54200
C8          C  0.27927073  0.99035983  0.49788248     0.09900
H9          H  0.24221587  0.04661692  0.06143331     0.14400
H10         H  0.22215019  0.98727553  0.47694945     0.00100
H11         H  0.24270483  0.93451967  0.05817096     0.14700
H12         H  0.32677429  0.99385878  0.52823007     0.14500
O13         O  0.45561140  0.96746883  0.30191291    -0.74700
O14         O  0.53146736  0.96942827  0.24021253    -0.74700
O15         O  0.53164489  0.96684725  0.30175491    -0.74700
O16         O  0.45540898  0.96975012  0.24038392    -0.74800
O17         O  0.45472843  0.03289380  0.24424694    -0.74700
O18         O  0.53263790  0.03001932  0.30503079    -0.74700
O19         O  0.53080467  0.03258790  0.24361980    -0.74700
O20         O  0.45655105  0.03062232  0.30640636    -0.74700
Ni21       Ni  0.49352989  0.96616572  0.27089855     1.25400
Ni22       Ni  0.49357330  0.03379305  0.27498417     1.25400
C23         C  0.44431415  0.99880977  0.31490510     0.87500
C24         C  0.54338637  0.00127708  0.23148877     0.87500
C25         C  0.54464644  0.99788927  0.31364707     0.87500
C26         C  0.44279350  0.00161444  0.23179239     0.87700
C27         C  0.71811580  0.00178248  0.05244485     0.86300
C28         C  0.74367108  0.96665727  0.04660799    -0.54000
C29         C  0.76506945  0.96443635  0.51543372     0.09200
C30         C  0.75588092  0.99946303  0.49745666     0.20100
C31         C  0.74505434  0.03516425  0.04937423    -0.54700
C32         C  0.76564661  0.03335288  0.51938302     0.09300
C33         C  0.69244181  0.00281086  0.02466261    -0.54200
C34         C  0.71279474  0.99985733  0.49503967     0.09900
H35         H  0.74836991  0.94536336  0.06313650     0.14400
H36         H  0.77021211  0.99886549  0.47510209     0.00100
H37         H  0.74890410  0.05704883  0.06721449     0.14700
H38         H  0.66436845  0.99931523  0.52426410     0.14500
C39         C  0.99812068  0.26751299  0.44552791     0.86300
C40         C  0.03327459  0.24187093  0.44849969    -0.54000
C41         C  0.03291715  0.21802726  0.97092292     0.09200
C42         C  0.00047727  0.22744811  0.99339529     0.20100
C43         C  0.96518748  0.23977182  0.44787010    -0.54700
C44         C  0.96477938  0.21948605  0.97446495     0.09300
C45         C  0.99661604  0.29213846  0.47511411    -0.54200
C46         C  0.00087364  0.27067677  0.99914317     0.09900
H47         H  0.05480583  0.23880492  0.43109649     0.14400
H48         H  0.00202712  0.21226841  0.01475707     0.00100
H49         H  0.94372632  0.23577813  0.43066534     0.14700
H50         H  0.99818047  0.32112263  0.97380533     0.14500
O51         O  0.02652434  0.52613945  0.20005306    -0.74700
O52         O  0.02669027  0.45273180  0.26102422    -0.74700
O53         O  0.02644778  0.44946856  0.19934926    -0.74700
O54         O  0.02666515  0.52931035  0.26192356    -0.74800
O55         O  0.96403238  0.52989618  0.26228697    -0.74700
O56         O  0.96378018  0.45077398  0.19918861    -0.74700
O57         O  0.96402485  0.45293517  0.26097327    -0.74700
O58         O  0.96387152  0.52717433  0.20040644    -0.74700
Ni59       Ni  0.02878518  0.48941451  0.23060085     1.25400
Ni60       Ni  0.96169928  0.49023237  0.23076024     1.25400
C61         C  0.99516963  0.53829192  0.18972845     0.87500
C62         C  0.99546957  0.44081283  0.27119467     0.87500
C63         C  0.99501788  0.43737317  0.18857886     0.87500
C64         C  0.99543592  0.54253823  0.27272634     0.87700
C65         C  0.99375906  0.71170487  0.01533352     0.86300
C66         C  0.02768773  0.73798746  0.01391244    -0.54000
C67         C  0.02562549  0.76010643  0.49306230     0.09200
C68         C  0.99344964  0.75502490  0.46946975     0.20100
C69         C  0.96024135  0.73937540  0.01624482    -0.54700
C70         C  0.95681324  0.76043051  0.48809594     0.09300
C71         C  0.99205455  0.68914021  0.48377835    -0.54200
C72         C  0.99440292  0.71231956  0.46002402     0.09900
H73         H  0.04920793  0.73970053  0.03133807     0.14400
H74         H  0.99545758  0.77353762  0.44992948     0.00100
H75         H  0.94013971  0.74088782  0.03477979     0.14700
H76         H  0.99207709  0.65841633  0.48069655     0.14500
C77         C  0.06416542  0.64212652  0.37853457    -0.18100
C78         C  0.06408443  0.61742971  0.35267484    -0.20200
C79         C  0.03028038  0.60844103  0.33759604     0.20400
C80         C  0.99631191  0.62527637  0.34823628    -0.03100
C81         C  0.99642435  0.65051394  0.37421432    -0.06200
C82         C  0.03047085  0.65846506  0.38970265     0.20700
C83         C  0.96231929  0.66666860  0.38531949     0.18900
C84         C  0.92860347  0.65810733  0.36996393    -0.17700
C85         C  0.92849624  0.63303485  0.34429540    -0.19900
C86         C  0.96211727  0.61611116  0.33344630     0.20400
C87         C  0.96204255  0.58962612  0.30849426    -0.32900
C88         C  0.99575834  0.57219366  0.29799446     0.01100
C89         C  0.02980882  0.58227518  0.31250701    -0.24300
C90         C  0.02996921  0.68124329  0.41678310    -0.28800
C91         C  0.99594163  0.69625979  0.42843478     0.06700
C92         C  0.96235789  0.68968741  0.41230431    -0.27500
H93         H  0.09054342  0.64796430  0.39009956     0.11400
H94         H  0.09043148  0.60481813  0.34477326     0.12600
H95         H  0.90217826  0.67024655  0.37815470     0.11600
H96         H  0.90199179  0.62644965  0.33317901     0.10900
H97         H  0.93563644  0.58225419  0.29750642     0.16300
H98         H  0.05596206  0.56907723  0.30474913     0.12200
H99         H  0.05571466  0.68585444  0.42960561     0.15000
H100        H  0.93605747  0.70073647  0.42171838     0.14800
C101        C  0.92688285  0.63007902  0.08635642    -0.18100
C102        C  0.92690689  0.60698624  0.11122810    -0.20200
C103        C  0.96078221  0.59762688  0.12556400     0.20400
C104        C  0.99500698  0.61141348  0.11459099    -0.03100
C105        C  0.99493925  0.63489045  0.08959302    -0.06200
C106        C  0.96071177  0.64438526  0.07551220     0.20700
C107        C  0.02911988  0.64863447  0.07859486     0.18900
C108        C  0.06311772  0.63844578  0.09239056    -0.17700
C109        C  0.06319718  0.61525846  0.11720176    -0.19900
C110        C  0.02929487  0.60171308  0.12853845     0.20400
C111        C  0.02911048  0.57840907  0.15339905    -0.32900
C112        C  0.99507578  0.56456991  0.16453547     0.01100
C113        C  0.96102330  0.57447797  0.15050188    -0.24300
C114        C  0.96082022  0.66835887  0.05108240    -0.28800
C115        C  0.99454771  0.68425510  0.04107075     0.06700
C116        C  0.02876925  0.67257201  0.05417142    -0.27500
H117        H  0.90034393  0.63701906  0.07576038     0.11400
H118        H  0.90039588  0.59646610  0.11927507     0.12600
H119        H  0.08965431  0.64867973  0.08414861     0.11600
H120        H  0.08979044  0.60795730  0.12755089     0.10900
H121        H  0.05553840  0.57082030  0.16390257     0.16300
H122        H  0.93466061  0.56372914  0.15868081     0.12200
H123        H  0.93445288  0.67508999  0.04013416     0.15000
H124        H  0.05540097  0.68164109  0.04539795     0.14800
C125        C  0.93004077  0.35242689  0.33644854    -0.18100
C126        C  0.93032412  0.32873011  0.36092936    -0.20200
C127        C  0.96370630  0.32238778  0.37705871     0.20400
C128        C  0.99711374  0.34000188  0.36846131    -0.03100
C129        C  0.99681319  0.36405275  0.34382936    -0.06200
C130        C  0.96308069  0.37038232  0.32781350     0.20700
C131        C  0.03014955  0.38213154  0.33551283     0.18900
C132        C  0.06339469  0.37610800  0.35186844    -0.17700
C133        C  0.06361239  0.35244279  0.37638121    -0.19900
C134        C  0.03063779  0.33422812  0.38484036     0.20400
C135        C  0.03059158  0.31053886  0.40947471    -0.32900
C136        C  0.99766579  0.29174378  0.41776006     0.01100
C137        C  0.96403352  0.29906138  0.40183118    -0.24300
C138        C  0.96285965  0.39500555  0.30378567    -0.28800
C139        C  0.99596643  0.41335717  0.29551012     0.06700
C140        C  0.02956421  0.40639601  0.31131531    -0.27500
H141        H  0.90390497  0.35693852  0.32441756     0.11400
H142        H  0.90438666  0.31537059  0.36727004     0.12600
H143        H  0.08920796  0.38990148  0.34581556     0.11600
H144        H  0.08959475  0.34839465  0.38873383     0.10900
H145        H  0.05624350  0.30685191  0.42235346     0.16300
H146        H  0.93752229  0.28786593  0.40894896     0.12200
H147        H  0.93685790  0.40009507  0.29170464     0.15000
H148        H  0.05519446  0.42053252  0.30524298     0.14800
C149        C  0.05968227  0.31447221  0.09634965    -0.18100
C150        C  0.05911789  0.33856747  0.12261556    -0.20200
C151        C  0.02709718  0.36072674  0.13008958     0.20400
C152        C  0.99502940  0.35791061  0.11123352    -0.03100
C153        C  0.99574883  0.33397205  0.08455017    -0.06200
C154        C  0.02835360  0.31233407  0.07692605     0.20700
C155        C  0.96418285  0.33252495  0.06508066     0.18900
C156        C  0.93181408  0.35383187  0.07291748    -0.17700
C157        C  0.93094262  0.37713190  0.09951005    -0.19900
C158        C  0.96252880  0.37973759  0.11859847     0.20400
C159        C  0.96242787  0.40449797  0.14449913    -0.32900
C160        C  0.99465500  0.40850917  0.16289925     0.01100
C161        C  0.02681101  0.38621462  0.15568218    -0.24300
C162        C  0.02936349  0.28996278  0.04957231    -0.28800
C163        C  0.99855521  0.28995988  0.02960536     0.06700
C164        C  0.96591342  0.31069581  0.03767896    -0.27500
H165        H  0.08490931  0.29805071  0.09092416     0.11400
H166        H  0.08392201  0.34020048  0.13691178     0.12600
H167        H  0.90731561  0.35286453  0.05825698     0.11600
H168        H  0.90575910  0.39365564  0.10487060     0.10900
H169        H  0.93759768  0.42166237  0.14972733     0.16300
H170        H  0.05170722  0.38894405  0.16981571     0.12200
H171        H  0.05453432  0.27391876  0.04317140     0.15000
H172        H  0.94214082  0.31036327  0.02221799     0.14800
C173        C  0.80138975  0.83160642  0.02168503    -0.18100
C174        C  0.82868372  0.80313477  0.01748130    -0.20200
C175        C  0.86339985  0.81101604  0.00423903     0.20400
C176        C  0.87034536  0.84580441  0.48573210    -0.03100
C177        C  0.84323374  0.87500700  0.49039388    -0.06200
C178        C  0.80834284  0.86837643  0.01264135     0.20700
C179        C  0.85264122  0.91291103  0.48527668     0.18900
C180        C  0.88872961  0.92099148  0.47458666    -0.17700
C181        C  0.91573071  0.89202323  0.47018923    -0.19900
C182        C  0.90703623  0.85443279  0.47626892     0.20400
C183        C  0.93483586  0.82571991  0.47461599    -0.32900
C184        C  0.92642951  0.78877289  0.48282267     0.01100
C185        C  0.89158648  0.78314257  0.00163264    -0.24300
C186        C  0.78180370  0.89738911  0.01821327    -0.28800
C187        C  0.79114781  0.93369168  0.50462004     0.06700
C188        C  0.82627554  0.94207668  0.49209875    -0.27500
H189        H  0.77505325  0.82500943  0.03247289     0.11400
H190        H  0.82290820  0.77510058  0.02513624     0.12600
H191        H  0.89641026  0.94987850  0.47039350     0.11600
H192        H  0.94368370  0.89917585  0.46277633     0.10900
H193        H  0.96322098  0.83275783  0.46881229     0.16300
H194        H  0.88584670  0.75512793  0.00934914     0.12200
H195        H  0.75552843  0.89107133  0.02923703     0.15000
H196        H  0.83374041  0.97135343  0.48913729     0.14800
C197        C  0.86781081  0.12712835  0.94144384    -0.18100
C198        C  0.83898613  0.10227923  0.94808422    -0.20200
C199        C  0.83022682  0.09548282  0.97833676     0.20400
C200        C  0.85029303  0.11460502  0.49963797    -0.03100
C201        C  0.87890119  0.14028675  0.49316073    -0.06200
C202        C  0.88798828  0.14594687  0.96495930     0.20700
C203        C  0.89936898  0.15840787  0.51709073     0.18900
C204        C  0.89136595  0.15041575  0.54723865    -0.17700
C205        C  0.86348365  0.12441531  0.55363425    -0.19900
C206        C  0.84282213  0.10643041  0.52999850     0.20400
C207        C  0.81512398  0.08009695  0.53622489    -0.32900
C208        C  0.79404035  0.06231245  0.51257518     0.01100
C209        C  0.80149532  0.07042245  0.98514665    -0.24300
C210        C  0.91647302  0.17127143  0.95844769    -0.28800
C211        C  0.93589342  0.19130008  0.98195094     0.06700
C212        C  0.92733987  0.18435350  0.51051508    -0.27500
H213        H  0.87413640  0.13185383  0.91789716     0.11400
H214        H  0.82365396  0.08823700  0.92954564     0.12600
H215        H  0.90685182  0.16408014  0.56586581     0.11600
H216        H  0.85801062  0.11843929  0.57708587     0.10900
H217        H  0.81074654  0.07292180  0.55954081     0.16300
H218        H  0.78533725  0.05722232  0.96673971     0.12200
H219        H  0.92353201  0.17517061  0.93492100     0.15000
H220        H  0.94174430  0.19923864  0.52910767     0.14800
C221        C  0.62414829  0.93362513  0.42542896    -0.18100
C222        C  0.60093798  0.93314512  0.39976540    -0.20200
C223        C  0.60001988  0.96409531  0.38099021     0.20400
C224        C  0.62343379  0.99545553  0.38770462    -0.03100
C225        C  0.64734174  0.99567726  0.41334550    -0.06200
C226        C  0.64713343  0.96488219  0.43256244     0.20700
C227        C  0.67075859  0.02707270  0.42014702     0.18900
C228        C  0.67023928  0.05774177  0.40109216    -0.17700
C229        C  0.64611174  0.05776434  0.37594424    -0.19900
C230        C  0.62233331  0.02695375  0.36922538     0.20400
C231        C  0.59694403  0.02740943  0.34476139    -0.32900
C232        C  0.57310724  0.99648467  0.33820624     0.01100
C233        C  0.57543074  0.96460975  0.35607393    -0.24300
C234        C  0.66926269  0.96628011  0.45892589    -0.28800
C235        C  0.69209412  0.99768166  0.46600293     0.06700
C236        C  0.69349078  0.02760124  0.44628503    -0.27500
H237        H  0.62383948  0.90969478  0.43987807     0.11400
H238        H  0.58318455  0.90882840  0.39490454     0.12600
H239        H  0.68802966  0.08203309  0.40594203     0.11600
H240        H  0.64578189  0.08208367  0.36190584     0.10900
H241        H  0.59555923  0.05191725  0.33093191     0.16300
H242        H  0.55707384  0.94072047  0.35126931     0.12200
H243        H  0.66852044  0.94315106  0.47419534     0.15000
H244        H  0.71108633  0.05183927  0.45196756     0.14800
C245        C  0.62411038  0.93337441  0.15529226    -0.18100
C246        C  0.64822678  0.93347450  0.13031814    -0.20200
C247        C  0.65959212  0.96782239  0.11874048     0.20400
C248        C  0.64668345  0.00243418  0.13246073    -0.03100
C249        C  0.62208324  0.00234656  0.15756502    -0.06200
C250        C  0.61073703  0.96761496  0.16895183     0.20700
C251        C  0.60837986  0.03691277  0.17091849     0.18900
C252        C  0.61955837  0.07124741  0.15912488    -0.17700
C253        C  0.64386018  0.07130670  0.13415135    -0.19900
C254        C  0.65753178  0.03703947  0.12062177     0.20400
C255        C  0.68134465  0.03673482  0.09520011    -0.32900
C256        C  0.69528047  0.00227412  0.08174738     0.01100
C257        C  0.68310933  0.96797109  0.09333503    -0.24300
C258        C  0.58569991  0.96761467  0.19344953    -0.28800
C259        C  0.57148882  0.00186222  0.20671445     0.06700
C260        C  0.58327029  0.03646695  0.19546516    -0.27500
H261        H  0.61562423  0.90647680  0.16374635     0.11400
H262        H  0.65791393  0.90663886  0.11998822     0.12600
H263        H  0.60926527  0.09806260  0.16906519     0.11600
H264        H  0.65184499  0.09816797  0.12534268     0.10900
H265        H  0.68829864  0.06337437  0.08555155     0.16300
H266        H  0.69090718  0.94106225  0.08216676     0.12200
H267        H  0.57685822  0.94080796  0.20188137     0.15000
H268        H  0.57246149  0.06305913  0.20546013     0.14800
C269        C  0.15881626  0.79529219  0.01107328    -0.18100
C270        C  0.18654921  0.82264616  0.01575876    -0.20200
C271        C  0.17997940  0.86006380  0.00777587     0.20400
C272        C  0.14480933  0.86797172  0.49894442    -0.03100
C273        C  0.11618485  0.84061437  0.49522343    -0.06200
C274        C  0.12391344  0.80501323  0.99863412     0.20100
C275        C  0.08146541  0.85028854  0.48196902     0.18900
C276        C  0.07598834  0.88712818  0.47200690    -0.17700
C277        C  0.10434671  0.91429107  0.47574347    -0.19900
C278        C  0.13873277  0.90512687  0.48945667     0.20400
C279        C  0.16669567  0.93264160  0.49468398    -0.32900
C280        C  0.20043077  0.92352275  0.50959520     0.01100
C281        C  0.20728799  0.88779623  0.01342140    -0.24300
C282        C  0.09532452  0.77824477  0.99578519    -0.28800
C283        C  0.05755018  0.78714962  0.49128053     0.06700
C284        C  0.05249746  0.82333920  0.47976171    -0.27500
H285        H  0.16437961  0.76667966  0.01781543     0.11400
H286        H  0.21302306  0.81461424  0.02594562     0.12600
H287        H  0.04955050  0.89512229  0.46177016     0.11600
H288        H  0.09915742  0.94265519  0.46828954     0.10900
H289        H  0.16145484  0.96149401  0.48838108     0.16300
H290        H  0.23372608  0.88004742  0.02383754     0.12200
H291        H  0.10104576  0.74961482  0.00243132     0.15000
H292        H  0.02580805  0.83113630  0.47021247     0.14800
C293        C  0.18839250  0.13558947  0.96157615    -0.18100
C294        C  0.16099014  0.16280611  0.95511504    -0.20200
C295        C  0.12495471  0.16138104  0.96798879     0.20400
C296        C  0.11594498  0.13494003  0.49250541    -0.03100
C297        C  0.14268866  0.10651252  0.49872242    -0.06200
C298        C  0.18031968  0.10667549  0.98122466     0.20700
C299        C  0.13179041  0.07463603  0.51461187     0.18900
C300        C  0.09429959  0.07129937  0.52386951    -0.17700
C301        C  0.06776803  0.09930737  0.51748829    -0.19900
C302        C  0.07834320  0.13123078  0.50191262     0.20400
C303        C  0.05189708  0.15943141  0.49556253    -0.32900
C304        C  0.06164867  0.18784916  0.97568137     0.01100
C305        C  0.09771113  0.18934242  0.96256892    -0.24300
C306        C  0.20789569  0.07989937  0.98863668    -0.28800
C307        C  0.19605841  0.05052476  0.51187855     0.06700
C308        C  0.15865404  0.04685896  0.52116462    -0.27500
H309        H  0.21605540  0.13744474  0.95151342     0.11400
H310        H  0.16808049  0.18515652  0.94022312     0.12600
H311        H  0.08549515  0.04702448  0.53606464     0.11600
H312        H  0.03897082  0.09608054  0.52486417     0.10900
H313        H  0.02287230  0.15564703  0.50206699     0.16300
H314        H  0.10500414  0.21268459  0.94875450     0.12200
H315        H  0.23585303  0.08101881  0.97893629     0.15000
H316        H  0.15067156  0.02252556  0.53368226     0.14800
C317        C  0.31777387  0.93817736  0.39607145    -0.18100
C318        C  0.34162550  0.93877952  0.37081298    -0.20200
C319        C  0.36794890  0.96786226  0.36842809     0.20400
C320        C  0.37020965  0.99664486  0.39175800    -0.03100
C321        C  0.34661552  0.99567622  0.41747561    -0.06200
C322        C  0.32010585  0.96639368  0.41959387     0.20700
C323        C  0.34983874  0.02382954  0.44119323     0.18900
C324        C  0.37600177  0.05299278  0.43881544    -0.17700
C325        C  0.39888825  0.05430852  0.41313704    -0.19900
C326        C  0.39626912  0.02626377  0.38954456     0.20400
C327        C  0.41951789  0.02717428  0.36393250    -0.32900
C328        C  0.41788837  0.99834647  0.34079454     0.01100
C329        C  0.39217749  0.96861621  0.34326288    -0.24300
C330        C  0.29693126  0.96556878  0.44541629    -0.28800
C331        C  0.30089635  0.99297260  0.46940185     0.06700
C332        C  0.32720196  0.02208320  0.46705884    -0.27500
H333        H  0.29772165  0.91541931  0.39733722     0.11400
H334        H  0.33945451  0.91648227  0.35310966     0.12600
H335        H  0.37878524  0.07480024  0.45684782     0.11600
H336        H  0.41885549  0.07714014  0.41183034     0.10900
H337        H  0.43966299  0.04983989  0.36238273     0.16300
H338        H  0.39083835  0.94629989  0.32549028     0.12200
H339        H  0.27681643  0.94295747  0.44738725     0.15000
H340        H  0.33004863  0.04335323  0.48552255     0.14800
C341        C  0.37995114  0.06448457  0.14653293    -0.18100
C342        C  0.35699425  0.06242155  0.12060409    -0.20200
C343        C  0.33846165  0.02864681  0.11185556     0.20400
C344        C  0.34311237  0.99670867  0.12947902    -0.03100
C345        C  0.36654033  0.99866958  0.15550612    -0.06200
C346        C  0.38505252  0.03273091  0.16412102     0.20700
C347        C  0.37183595  0.96634366  0.17262169     0.18900
C348        C  0.35349107  0.93255054  0.16383372    -0.17700
C349        C  0.33026883  0.93066733  0.13818033    -0.19900
C350        C  0.32491760  0.96255303  0.12082444     0.20400
C351        C  0.30206881  0.96053767  0.09478374    -0.32900
C352        C  0.29661601  0.99236192  0.07702910     0.01100
C353        C  0.31566730  0.02614881  0.08569402    -0.24300
C354        C  0.40886760  0.03414718  0.18975697    -0.28800
C355        C  0.41490572  0.00168972  0.20656280     0.06700
C356        C  0.39590551  0.96806100  0.19789432    -0.27500
H357        H  0.39398155  0.09086178  0.15268176     0.11400
H358        H  0.35378915  0.08727397  0.10734625     0.12600
H359        H  0.35729109  0.90744829  0.17671154     0.11600
H360        H  0.31658884  0.90415440  0.13183798     0.10900
H361        H  0.28986291  0.93353046  0.08816822     0.16300
H362        H  0.31285156  0.05055023  0.07186354     0.12200
H363        H  0.42357595  0.06011420  0.19603052     0.15000
H364        H  0.40020495  0.94290683  0.21064410     0.14800
C365        C  0.26948877  0.99093550  0.55258320     0.86300
C366        C  0.24140733  0.02373956  0.54813409    -0.54000
C367        C  0.22821521  0.02359497  0.01665226     0.09200
C368        C  0.23758349  0.98904001  0.99548719     0.20100
C369        C  0.24559304  0.95517563  0.54622324    -0.54700
C370        C  0.22900553  0.95494462  0.01458067     0.09300
C371        C  0.29645714  0.99185887  0.52559092    -0.54200
C372        C  0.28054576  0.98951713  0.99248351     0.09900
H373        H  0.23479156  0.04577902  0.56541040     0.14400
H374        H  0.22256971  0.98889068  0.97335603     0.00100
H375        H  0.24101904  0.93414039  0.56291518     0.14700
H376        H  0.32972869  0.99144926  0.02100135     0.14500
O377        O  0.46179714  0.96973012  0.80044886    -0.74700
O378        O  0.53773792  0.97318621  0.73914982    -0.74700
O379        O  0.53786770  0.97184554  0.80057080    -0.74700
O380        O  0.46162088  0.97090813  0.73900302    -0.74800
O381        O  0.45877533  0.03402101  0.74203899    -0.74700
O382        O  0.53524060  0.03502763  0.80371510    -0.74700
O383        O  0.53507350  0.03633343  0.74189000    -0.74700
O384        O  0.45962192  0.03291447  0.80372086    -0.74700
Ni385      Ni  0.49985294  0.96920404  0.76962340     1.25400
Ni386      Ni  0.49712420  0.03683631  0.77290323     1.25400
C387        C  0.44861113  0.00083135  0.81256287     0.87500
C388        C  0.54887704  0.00521436  0.73028281     0.87500
C389        C  0.54850325  0.00362661  0.81280537     0.87500
C390        C  0.44753703  0.00213111  0.73030542     0.87700
C391        C  0.72127775  0.99888038  0.54977909     0.86300
C392        C  0.74722491  0.96417082  0.54287956    -0.54000
C393        C  0.76224033  0.96557878  0.01944292     0.09200
C394        C  0.75408401  0.00024024  0.00070286     0.20100
C395        C  0.74734515  0.03285984  0.54666439    -0.54700
C396        C  0.76416939  0.03451552  0.02233205     0.09300
C397        C  0.69482208  0.99961959  0.52232162    -0.54200
C398        C  0.71101149  0.00195099  0.99764971     0.09900
H399        H  0.75266025  0.94183239  0.55828780     0.14400
H400        H  0.76878942  0.99892896  0.97851690     0.00100
H401        H  0.75081963  0.05459036  0.56471385     0.14700
H402        H  0.66195095  0.00409943  0.02622976     0.14500
C403        C  0.99690957  0.26531851  0.94399450     0.86300
C404        C  0.03090843  0.23808149  0.94514227    -0.54000
C405        C  0.03370098  0.22144849  0.47416251     0.09200
C406        C  0.99904633  0.22900505  0.49457055     0.20100
C407        C  0.96288351  0.23956537  0.94878814    -0.54700
C408        C  0.96538331  0.21972264  0.47359598     0.09300
C409        C  0.99911302  0.29033395  0.97336873    -0.54200
C410        C  0.99709984  0.27204050  0.50064432     0.09900
H411        H  0.05063521  0.23408679  0.92646184     0.14400
H412        H  0.99985469  0.21361684  0.51584364     0.00100
H413        H  0.93932754  0.23648685  0.93345865     0.14700
H414        H  0.99493485  0.32291134  0.47582511     0.14500
O415        O  0.02208242  0.52807706  0.70145014    -0.74700
O416        O  0.02531875  0.45339890  0.76121837    -0.74700
O417        O  0.02361479  0.45161183  0.69966001    -0.74700
O418        O  0.02324340  0.53004475  0.76336767    -0.74800
O419        O  0.96065606  0.52867736  0.76451467    -0.74700
O420        O  0.96093879  0.45191550  0.69996567    -0.74700
O421        O  0.96267136  0.45178792  0.76143870    -0.74700
O422        O  0.95943659  0.52835207  0.70265782    -0.74700
Ni423      Ni  0.02578014  0.49087953  0.73142789     1.25400
Ni424      Ni  0.95869906  0.49020487  0.73223522     1.25400
C425        C  0.99037602  0.53989318  0.69159403     0.87500
C426        C  0.99457976  0.44010566  0.77111134     0.87500
C427        C  0.99221863  0.43922844  0.68900853     0.87500
C428        C  0.99184292  0.54195978  0.77479019     0.87700
C429        C  0.98857693  0.71009153  0.51491781     0.86300
C430        C  0.02234349  0.73681529  0.51684439    -0.54000
C431        C  0.02751134  0.76142176  0.99011911     0.09200
C432        C  0.99185776  0.75715346  0.97005767     0.20100
C433        C  0.95481850  0.73718308  0.51192068    -0.54700
C434        C  0.95851306  0.76297298  0.99251407     0.09300
C435        C  0.99182465  0.69109455  0.98408099    -0.54200
C436        C  0.99085997  0.71448303  0.96041498     0.09900
H437        H  0.04178720  0.73746340  0.53587348     0.14400
H438        H  0.99108783  0.77582870  0.95055078     0.00100
H439        H  0.93201587  0.73988488  0.52811757     0.14700
H440        H  0.99163957  0.66038179  0.98086779     0.14500
C441        C  0.05909883  0.65061553  0.87553557    -0.18100
C442        C  0.05931035  0.62492711  0.85029880    -0.20200
C443        C  0.02542021  0.61152447  0.83764496     0.20400
C444        C  0.99092464  0.62457002  0.85030329    -0.03100
C445        C  0.99069220  0.65059433  0.87576743    -0.06200
C446        C  0.02499544  0.66339075  0.88857884     0.20700
C447        C  0.95620788  0.66280653  0.88900467     0.18900
C448        C  0.92231719  0.64955241  0.87623751    -0.17700
C449        C  0.92255882  0.62393601  0.85091858    -0.19900
C450        C  0.95669668  0.61101870  0.83794518     0.20400
C451        C  0.95720559  0.58442948  0.81311684    -0.32900
C452        C  0.99151287  0.57103602  0.80042587     0.01100
C453        C  0.02548960  0.58494738  0.81282981    -0.24300
C454        C  0.02461583  0.68736241  0.91498414    -0.28800
C455        C  0.99046375  0.69837100  0.92886043     0.06700
C456        C  0.95633606  0.68667172  0.91552608    -0.27500
H457        H  0.08566433  0.66007394  0.88513609     0.11400
H458        H  0.08604214  0.61521120  0.84086963     0.12600
H459        H  0.89560385  0.65858356  0.88610400     0.11600
H460        H  0.89600868  0.61385786  0.84170331     0.10900
H461        H  0.93081798  0.57392019  0.80387320     0.16300
H462        H  0.05208930  0.57481967  0.80338713     0.12200
H463        H  0.05087910  0.69570581  0.92580117     0.15000
H464        H  0.93006149  0.69449937  0.92674779     0.14800
C465        C  0.92114981  0.64716414  0.59861410    -0.18100
C466        C  0.92170027  0.62429439  0.62363333    -0.20200
C467        C  0.95521159  0.60659163  0.63243627     0.20400
C468        C  0.98841378  0.61174977  0.61566294    -0.03100
C469        C  0.98780842  0.63473490  0.59034337    -0.06200
C470        C  0.95410937  0.65276387  0.58196096     0.20700
C471        C  0.02087746  0.63956100  0.57339936     0.18900
C472        C  0.05422784  0.62121498  0.58178626    -0.17700
C473        C  0.05492806  0.59869307  0.60700357    -0.19900
C474        C  0.02223082  0.59393600  0.62414534     0.20400
C475        C  0.02273231  0.57142998  0.64945170    -0.32900
C476        C  0.98974719  0.56593604  0.66625132     0.01100
C477        C  0.95605268  0.58363448  0.65755070    -0.24300
C478        C  0.95390181  0.67632136  0.55725378    -0.28800
C479        C  0.98721129  0.68292209  0.54092987     0.06700
C480        C  0.02018844  0.66302240  0.54862836    -0.27500
H481        H  0.89495179  0.66069858  0.59241021     0.11400
H482        H  0.89591681  0.62054925  0.63615769     0.12600
H483        H  0.07987702  0.62455064  0.56899334     0.11600
H484        H  0.08108245  0.58500769  0.61311878     0.10900
H485        H  0.04875523  0.55754546  0.65567355     0.16300
H486        H  0.93045137  0.57942918  0.67021976     0.12200
H487        H  0.92739204  0.68872325  0.55085618     0.15000
H488        H  0.04568594  0.66656410  0.53566011     0.14800
C489        C  0.93282343  0.34264873  0.82950273    -0.18100
C490        C  0.93294330  0.31840715  0.85359486    -0.20200
C491        C  0.96493503  0.31519240  0.87204269     0.20400
C492        C  0.99733222  0.33605822  0.86585520    -0.03100
C493        C  0.99729983  0.36039488  0.84142882    -0.06200
C494        C  0.96470064  0.36403758  0.82343527     0.20700
C495        C  0.02958459  0.38163554  0.83542162     0.18900
C496        C  0.06169474  0.37806912  0.85366938    -0.17700
C497        C  0.06157647  0.35418484  0.87805417    -0.19900
C498        C  0.02944293  0.33327441  0.88444911     0.20400
C499        C  0.02870396  0.31004154  0.90932913    -0.32900
C500        C  0.99651049  0.28893533  0.91584981     0.01100
C501        C  0.96467524  0.29193139  0.89684645    -0.24300
C502        C  0.96424295  0.38959975  0.80012573    -0.28800
C503        C  0.99603175  0.41143635  0.79440028     0.06700
C504        C  0.02887116  0.40671896  0.81174850    -0.27500
H505        H  0.90763225  0.34499319  0.81582948     0.11400
H506        H  0.90782788  0.30247034  0.85800694     0.12600
H507        H  0.08673480  0.39416236  0.84934357     0.11600
H508        H  0.08653727  0.35228172  0.89205158     0.10900
H509        H  0.05320521  0.30851715  0.92391343     0.16300
H510        H  0.93892321  0.27749554  0.90129377     0.12200
H511        H  0.93898291  0.39278344  0.78664296     0.15000
H512        H  0.05351375  0.42346540  0.80748370     0.14800
C513        C  0.05794552  0.31954229  0.59515689    -0.18100
C514        C  0.05764978  0.34407550  0.62110112    -0.20200
C515        C  0.02484213  0.36430448  0.62966706     0.20400
C516        C  0.99172661  0.35907805  0.61232072    -0.03100
C517        C  0.99212382  0.33466648  0.58595813    -0.06200
C518        C  0.02553807  0.31509500  0.57718321     0.20700
C519        C  0.95944874  0.33082856  0.56785234     0.18900
C520        C  0.92631835  0.35010885  0.57691267    -0.17700
C521        C  0.92580772  0.37391990  0.60324638    -0.19900
C522        C  0.95848459  0.37901642  0.62082969     0.20400
C523        C  0.95869682  0.40432830  0.64637647    -0.32900
C524        C  0.99186587  0.41055178  0.66330185     0.01100
C525        C  0.02476141  0.39017375  0.65492116    -0.24300
C526        C  0.02631155  0.29265384  0.54998364    -0.28800
C527        C  0.99447100  0.29057759  0.53122000     0.06700
C528        C  0.96092877  0.30892220  0.54045486    -0.27500
H529        H  0.08377604  0.30468013  0.58877653     0.11400
H530        H  0.08324771  0.34759753  0.63426286     0.12600
H531        H  0.90096217  0.34726724  0.56335512     0.11600
H532        H  0.90002501  0.38892521  0.60954541     0.10900
H533        H  0.93323047  0.41999113  0.65256220     0.16300
H534        H  0.05037534  0.39461209  0.66792964     0.12200
H535        H  0.05210812  0.27836872  0.54260996     0.15000
H536        H  0.93638778  0.30693418  0.52583706     0.14800
C537        C  0.79794736  0.82869098  0.50618109    -0.18100
C538        C  0.82468194  0.79977795  0.50134766    -0.20200
C539        C  0.86113156  0.80819319  0.49180141     0.20400
C540        C  0.87042348  0.84763685  0.99439289    -0.03100
C541        C  0.84275798  0.87642240  0.99854798    -0.06200
C542        C  0.80720134  0.86641668  0.50137032     0.20700
C543        C  0.84989076  0.91339293  0.98937688     0.18900
C544        C  0.88435067  0.92091139  0.97543956    -0.17700
C545        C  0.91184957  0.89234059  0.97138332    -0.19900
C546        C  0.90538634  0.85570583  0.98115076     0.20400
C547        C  0.93361493  0.82739464  0.97894481    -0.32900
C548        C  0.92737488  0.79135843  0.99014971     0.01100
C549        C  0.88900327  0.77994099  0.48978237    -0.24300
C550        C  0.78148835  0.89578815  0.50842610    -0.28800
C551        C  0.78914382  0.93462119  0.01025927     0.06700
C552        C  0.82290211  0.94230597  0.99516267    -0.27500
H553        H  0.77030113  0.82165755  0.51439079     0.11400
H554        H  0.81718421  0.77097236  0.50598425     0.12600
H555        H  0.89030412  0.94907450  0.96814775     0.11600
H556        H  0.93844766  0.89908671  0.96108283     0.10900
H557        H  0.96080229  0.83403706  0.96981439     0.16300
H558        H  0.88189099  0.75125319  0.49514494     0.12200
H559        H  0.75411807  0.88926803  0.51752482     0.15000
H560        H  0.82889081  0.97099326  0.98911002     0.14800
C561        C  0.86617102  0.12999384  0.43914271    -0.18100
C562        C  0.83734695  0.10501894  0.44559706    -0.20200
C563        C  0.82937051  0.09695552  0.47574931     0.20400
C564        C  0.85064505  0.11397617  0.00213530    -0.03100
C565        C  0.87937749  0.13948809  0.99544654    -0.06200
C566        C  0.88706657  0.14772504  0.46277110     0.20700
C567        C  0.89941624  0.15852433  0.01922562     0.18900
C568        C  0.89084178  0.15145351  0.04947317    -0.17700
C569        C  0.86269544  0.12574205  0.05609869    -0.19900
C570        C  0.84238766  0.10698212  0.03259328     0.20400
C571        C  0.81417344  0.08116018  0.03902374    -0.32900
C572        C  0.79342928  0.06270594  0.01542909     0.01100
C573        C  0.80108485  0.07131702  0.48240170    -0.24300
C574        C  0.91594643  0.17278282  0.45651848    -0.28800
C575        C  0.93597018  0.19172003  0.48027672     0.06700
C576        C  0.92739548  0.18450244  0.01233002    -0.27500
H577        H  0.87202498  0.13555813  0.41566836     0.11400
H578        H  0.82153695  0.09172554  0.42699012     0.12600
H579        H  0.90595205  0.16575585  0.06801204     0.11600
H580        H  0.85668670  0.12065745  0.07963442     0.10900
H581        H  0.80903719  0.07500806  0.06246223     0.16300
H582        H  0.78462790  0.05851184  0.46399959     0.12200
H583        H  0.92279493  0.17720591  0.43304970     0.15000
H584        H  0.94189609  0.19992515  0.03062924     0.14800
C585        C  0.67230744  0.94343307  0.89831574    -0.18100
C586        C  0.64880881  0.94318995  0.87274513    -0.20200
C587        C  0.62371592  0.97343885  0.86841396     0.20400
C588        C  0.62226167  0.00419085  0.89013607    -0.03100
C589        C  0.64552477  0.00416946  0.91613499    -0.06200
C590        C  0.67087015  0.97374670  0.92017564     0.20700
C591        C  0.64308345  0.03442858  0.93824788     0.18900
C592        C  0.61794640  0.06458114  0.93405502    -0.17700
C593        C  0.59537133  0.06488611  0.90809865    -0.19900
C594        C  0.59729915  0.03485957  0.88605850     0.20400
C595        C  0.57433664  0.03483729  0.86021054    -0.32900
C596        C  0.57514859  0.00414224  0.83864869     0.01100
C597        C  0.59983442  0.97341413  0.84293555    -0.24300
C598        C  0.69373119  0.97394841  0.94626733    -0.28800
C599        C  0.69057032  0.00361840  0.96858032     0.06700
C600        C  0.66538929  0.03375652  0.96440628    -0.27500
H601        H  0.69140393  0.91975164  0.90111462     0.11400
H602        H  0.65028386  0.91932642  0.85633108     0.12600
H603        H  0.61573237  0.08795221  0.95087743     0.11600
H604        H  0.57619116  0.08851545  0.90535920     0.10900
H605        H  0.55496061  0.05829866  0.85732493     0.16300
H606        H  0.60050922  0.94959739  0.82642609     0.12200
H607        H  0.71287196  0.95047441  0.94981997     0.15000
H608        H  0.66301469  0.05654099  0.98176683     0.14800
C609        C  0.64275574  0.93832164  0.66447507    -0.18100
C610        C  0.66703277  0.93730080  0.63954959    -0.20200
C611        C  0.67222139  0.96975348  0.62298931     0.20400
C612        C  0.65341749  0.00380784  0.63204996    -0.03100
C613        C  0.62905503  0.00492333  0.65735952    -0.06200
C614        C  0.62335517  0.97184471  0.67333108     0.20700
C615        C  0.60969509  0.03880411  0.66617623     0.18900
C616        C  0.61537740  0.07140705  0.64986618    -0.17700
C617        C  0.63920911  0.07015891  0.62455954    -0.19900
C618        C  0.65798234  0.03636612  0.61527204     0.20400
C619        C  0.68046581  0.03431133  0.58909416    -0.32900
C620        C  0.69943805  0.00041408  0.57967273     0.01100
C621        C  0.69505137  0.96827270  0.59705100    -0.24300
C622        C  0.59773111  0.97254536  0.69745016    -0.28800
C623        C  0.57767069  0.00590294  0.70604158     0.06700
C624        C  0.58433986  0.03917354  0.69063547    -0.27500
H625        H  0.63877288  0.91272184  0.67659278     0.11400
H626        H  0.68131948  0.91091978  0.63293515     0.12600
H627        H  0.60086841  0.09770483  0.65635050     0.11600
H628        H  0.64260156  0.09552212  0.61202629     0.10900
H629        H  0.68275979  0.05906139  0.57565548     0.16300
H630        H  0.70766571  0.94135158  0.59003023     0.12200
H631        H  0.59307577  0.94685338  0.70931660     0.15000
H632        H  0.56901142  0.06502870  0.69706566     0.14800
C633        C  0.15668117  0.79431882  0.51851433    -0.18100
C634        C  0.18496166  0.82135842  0.52222252    -0.20200
C635        C  0.17913143  0.85835368  0.51288117     0.20400
C636        C  0.14532427  0.86997595  0.99449041    -0.03100
C637        C  0.11705922  0.84237528  0.99010920    -0.06200
C638        C  0.12207371  0.80381282  0.50542276     0.20100
C639        C  0.08172186  0.85231879  0.97797411     0.18900
C640        C  0.07559097  0.88964881  0.96931475    -0.17700
C641        C  0.10380552  0.91697855  0.97335239    -0.19900
C642        C  0.13862904  0.90757014  0.98629445     0.20400
C643        C  0.16653940  0.93512130  0.99189865    -0.32900
C644        C  0.20071795  0.92550440  0.00600466     0.01100
C645        C  0.20666073  0.88609013  0.51801051    -0.24300
C646        C  0.09294808  0.77739788  0.50317395    -0.28800
C647        C  0.05900279  0.78841521  0.98608013     0.06700
C648        C  0.05282843  0.82517798  0.97596442    -0.27500
H649        H  0.16165662  0.76611857  0.52638390     0.11400
H650        H  0.21119938  0.81349117  0.53286469     0.12600
H651        H  0.04874620  0.89788126  0.95986842     0.11600
H652        H  0.09813721  0.94566318  0.96684106     0.10900
H653        H  0.16108135  0.96423170  0.98637399     0.16300
H654        H  0.23277457  0.87869475  0.52908780     0.12200
H655        H  0.09774941  0.74926003  0.51123851     0.15000
H656        H  0.02528080  0.83329231  0.96802729     0.14800
C657        C  0.19083412  0.14198849  0.47358198    -0.18100
C658        C  0.16433554  0.17024799  0.46755242    -0.20200
C659        C  0.12682664  0.16702088  0.47690798     0.20400
C660        C  0.11625222  0.13182129  0.98709724    -0.03100
C661        C  0.14398801  0.10466461  0.99393117    -0.06200
C662        C  0.18033257  0.11007767  0.48918738     0.20700
C663        C  0.13545384  0.07575275  0.01375978     0.18900
C664        C  0.09911053  0.07353898  0.02579574    -0.17700
C665        C  0.07152680  0.10015097  0.01870263    -0.19900
C666        C  0.07997110  0.12963812  0.99972388     0.20400
C667        C  0.05285490  0.15723862  0.99355610    -0.32900
C668        C  0.06245607  0.19180836  0.48036628     0.01100
C669        C  0.10005342  0.19530578  0.47102012    -0.24300
C670        C  0.20680849  0.08185237  0.49572240    -0.28800
C671        C  0.19959780  0.05187359  0.00899933     0.06700
C672        C  0.16345949  0.04968837  0.02132156    -0.27500
H673        H  0.21960740  0.14517473  0.46614339     0.11400
H674        H  0.17319484  0.19465491  0.45555222     0.12600
H675        H  0.09207814  0.05134420  0.04085209     0.11600
H676        H  0.04372145  0.09801692  0.02845955     0.10900
H677        H  0.02484632  0.15462167  0.00275432     0.16300
H678        H  0.10859764  0.22017964  0.45947081     0.12200
H679        H  0.23586820  0.08445884  0.48875395     0.15000
H680        H  0.15719789  0.02747031  0.03661172     0.14800
C681        C  0.32899590  0.93201034  0.89564288    -0.18100
C682        C  0.35360910  0.93317986  0.87093022    -0.20200
C683        C  0.37475332  0.96578206  0.86639785     0.20400
C684        C  0.37071039  0.99769608  0.88677029    -0.03100
C685        C  0.34622437  0.99638012  0.91186687    -0.06200
C686        C  0.32534343  0.96330520  0.91640454     0.20700
C687        C  0.34328956  0.02788703  0.93278142     0.18900
C688        C  0.36394528  0.06067875  0.92804513    -0.17700
C689        C  0.38782919  0.06213774  0.90299553    -0.19900
C690        C  0.39160821  0.03074127  0.88238636     0.20400
C691        C  0.41630365  0.03169648  0.85771011    -0.32900
C692        C  0.42100436  0.99984153  0.83757736     0.01100
C693        C  0.40012831  0.96694236  0.84206695    -0.24300
C694        C  0.30211765  0.96181913  0.94210068    -0.28800
C695        C  0.30049864  0.99260882  0.96347892     0.06700
C696        C  0.32057322  0.02567916  0.95852132    -0.27500
H697        H  0.31323214  0.90640683  0.89876922     0.11400
H698        H  0.35628062  0.90847367  0.85545291     0.12600
H699        H  0.36189568  0.08509066  0.94388686     0.11600
H700        H  0.40369862  0.08769378  0.89993521     0.10900
H701        H  0.43256369  0.05701349  0.85459884     0.16300
H702        H  0.40355649  0.94230457  0.82659229     0.12200
H703        H  0.28663960  0.93627954  0.94619922     0.15000
H704        H  0.31904075  0.04936911  0.97514059     0.14800
C705        C  0.36122955  0.06664397  0.66020130    -0.18100
C706        C  0.33618303  0.06497418  0.63561310    -0.20200
C707        C  0.32555802  0.02987324  0.62199247     0.20400
C708        C  0.33990157  0.99614785  0.63356129    -0.03100
C709        C  0.36533265  0.99782087  0.65827597    -0.06200
C710        C  0.37627506  0.03324470  0.67153030     0.20700
C711        C  0.38043255  0.96404129  0.66924223     0.18900
C712        C  0.36969198  0.92896551  0.65575266    -0.17700
C713        C  0.34470955  0.92733952  0.63120702    -0.19900
C714        C  0.32985966  0.96075669  0.61981658     0.20400
C715        C  0.30598277  0.95931069  0.59441929    -0.32900
C716        C  0.29102025  0.99273318  0.58269216     0.01100
C717        C  0.30168718  0.02798141  0.59652779    -0.24300
C718        C  0.40260168  0.03462292  0.69542441    -0.28800
C719        C  0.41829025  0.00098963  0.70614302     0.06700
C720        C  0.40659087  0.96584621  0.69308424    -0.27500
H721        H  0.36921864  0.09410226  0.67009858     0.11400
H722        H  0.32539117  0.09119372  0.62705558     0.12600
H723        H  0.38101417  0.90275693  0.66393521     0.11600
H724        H  0.33726964  0.89990815  0.62093945     0.10900
H725        H  0.30019421  0.93201397  0.58320757     0.16300
H726        H  0.29255789  0.05416102  0.58694374     0.12200
H727        H  0.41128645  0.06187418  0.70531053     0.15000
H728        H  0.41831564  0.93972078  0.70112213     0.14800
loop_ 
_geom_bond_atom_site_label_1 
_geom_bond_atom_site_label_2 
_geom_bond_distance 
_geom_bond_site_symmetry_2 
_ccdc_geom_bond_type 
C1            C2   1.542   1_565  S
C1            C7   1.533       .  S
C1            C5   1.547       .  S
C1          C352   1.536       .  S
C2            H9   1.086       .  S
C2          C367   1.367       .  D
C3            C4   1.535   1_545  S
C3          C366   1.364       .  D
C3          C307   1.470       .  S
C4            C8   1.540       .  S
C4            C6   1.541       .  S
C4           H10   1.111       .  S
C5           H11   1.082       .  S
C5          C370   1.371       .  D
C6          C369   1.371       .  D
C6          C280   1.489       .  S
C7          H376   1.087       .  S
C7          C372   1.363   1_554  D
C8          C371   1.364       .  D
C8          C331   1.480       .  S
H12         C371   1.087       .  S
O13         Ni21   1.920       .  S
O13          C23   1.281       .  A
O14         Ni21   1.920       .  S
O14          C24   1.283   1_565  A
O15         Ni21   1.918       .  S
O15          C25   1.281       .  A
O16         Ni21   1.916       .  S
O16          C26   1.282   1_565  A
O17         Ni22   1.933       .  S
O17          C26   1.284       .  A
O18         Ni22   1.926       .  S
O18          C25   1.283   1_545  A
O19         Ni22   1.914       .  S
O19          C24   1.280       .  A
O20         Ni22   1.920       .  S
O20          C23   1.282   1_545  A
Ni21        Ni22   2.386   1_565  S
C23         C328   1.480       .  S
C24         C259   1.482       .  S
C25         C232   1.483       .  S
C26         C355   1.489       .  S
C27          C28   1.541   1_545  S
C27          C33   1.528       .  S
C27          C31   1.538       .  S
C27         C256   1.526       .  S
C28          H35   1.085       .  S
C28         C393   1.367       .  D
C29          C30   1.534       .  S
C29         C392   1.367       .  D
C29         C187   1.481       .  S
C30          C34   1.536       .  S
C30          C32   1.542   1_565  S
C30          H36   1.109       .  S
C31          H37   1.084       .  S
C31         C396   1.372       .  D
C32         C395   1.369       .  D
C32         C208   1.486       .  S
C33         H402   1.087       .  S
C33         C398   1.361   1_554  D
C34         C397   1.363       .  D
C34         C235   1.474       .  S
H38         C397   1.087       .  S
C39          C40   1.545   1_655  S
C39          C45   1.531       .  S
C39          C43   1.541       .  S
C39         C136   1.528       .  S
C40          H47   1.085       .  S
C40         C405   1.372       .  D
C41          C42   1.544       .  S
C41         C404   1.370       .  D
C41         C304   1.491       .  S
C42          C46   1.535       .  S
C42          C44   1.538   1_455  S
C42          H48   1.108   1_556  S
C43          H49   1.080       .  S
C43         C408   1.367       .  D
C44         C407   1.367       .  D
C44         C211   1.487       .  S
C45         H414   1.087       .  S
C45         C410   1.360       .  D
C46         C409   1.362   1_455  D
C46         C163   1.476   1_456  S
H50         C409   1.087       .  S
O51         Ni59   1.917       .  S
O51          C61   1.282   1_455  A
O52         Ni59   1.913       .  S
O52          C62   1.281   1_455  A
O53         Ni59   1.924       .  S
O53          C63   1.282   1_455  A
O54         Ni59   1.923       .  S
O54          C64   1.283   1_455  A
O55         Ni60   1.925       .  S
O55          C64   1.283       .  A
O56         Ni60   1.920       .  S
O56          C63   1.282       .  A
O57         Ni60   1.921       .  S
O57          C62   1.282       .  A
O58         Ni60   1.917       .  S
O58          C61   1.282       .  A
Ni59        Ni60   2.385   1_455  S
C61         C112   1.482       .  S
C62         C139   1.481       .  S
C63         C160   1.485       .  S
C64          C88   1.490       .  S
C65          C66   1.533   1_655  S
C65          C69   1.533       .  S
C65         C435   1.527   1_554  S
C65         C115   1.529       .  S
C66          H73   1.083       .  S
C66         C431   1.368   1_554  D
C67          C68   1.551   1_455  S
C67         C430   1.370       .  D
C67         C283   1.496       .  S
C68          C72   1.544       .  S
C68          C70   1.546       .  S
C68          H74   1.110       .  S
C69          H75   1.085       .  S
C69         C434   1.371   1_554  D
C70         C433   1.367       .  D
C70         C184   1.491       .  S
C71         C429   1.530       .  S
C71          H76   1.087       .  S
C71          C72   1.364       .  D
C72          C91   1.477       .  S
C77          C78   1.400       .  A
C77          C82   1.403       .  A
C77          H93   1.084       .  S
C78          C79   1.404       .  A
C78          H94   1.083       .  S
C79          C89   1.405       .  A
C79          C80   1.411   1_455  A
C80          C86   1.412       .  A
C80          C81   1.415       .  A
C81          C83   1.412       .  A
C81          C82   1.413   1_655  A
C82          C90   1.405       .  A
C83          C92   1.406       .  A
C83          C84   1.404       .  A
C84          C85   1.401       .  A
C84          H95   1.084       .  S
C85          C86   1.405       .  A
C85          H96   1.083       .  S
C86          C87   1.407       .  A
C87          C88   1.410       .  A
C87          H97   1.084       .  S
C88          C89   1.409   1_655  A
C89          H98   1.084       .  S
C90          C91   1.404   1_455  A
C90          H99   1.085       .  S
C91          C92   1.404       .  A
C92         H100   1.085       .  S
C101        C102   1.399       .  A
C101        C106   1.403       .  A
C101        H117   1.084       .  S
C102        C103   1.403       .  A
C102        H118   1.083       .  S
C103        C113   1.402       .  A
C103        C104   1.411       .  A
C104        C110   1.411   1_655  A
C104        C105   1.412       .  A
C105        C107   1.409   1_655  A
C105        C106   1.410       .  A
C106        C114   1.403       .  A
C107        C116   1.402       .  A
C107        C108   1.404       .  A
C108        C109   1.399       .  A
C108        H119   1.084       .  S
C109        C110   1.403       .  A
C109        H120   1.084       .  S
C110        C111   1.403       .  A
C111        C112   1.408   1_455  A
C111        H121   1.084       .  S
C112        C113   1.408       .  A
C113        H122   1.084       .  S
C114        C115   1.410       .  A
C114        H123   1.083       .  S
C115        C116   1.413   1_655  A
C116        H124   1.081       .  S
C125        C126   1.398       .  A
C125        C130   1.403       .  A
C125        H141   1.084       .  S
C126        C127   1.404       .  A
C126        H142   1.084       .  S
C127        C137   1.400       .  A
C127        C128   1.408       .  A
C128        C134   1.411   1_655  A
C128        C129   1.412       .  A
C129        C131   1.410   1_655  A
C129        C130   1.412       .  A
C130        C138   1.404       .  A
C131        C140   1.401       .  A
C131        C132   1.404       .  A
C132        C133   1.399       .  A
C132        H143   1.084       .  S
C133        C134   1.403       .  A
C133        H144   1.083       .  S
C134        C135   1.404       .  A
C135        C136   1.409   1_455  A
C135        H145   1.084       .  S
C136        C137   1.414       .  A
C137        H146   1.079       .  S
C138        C139   1.407       .  A
C138        H147   1.084       .  S
C139        C140   1.408   1_655  A
C140        H148   1.084       .  S
C149        C150   1.402       .  A
C149        C154   1.404       .  A
C149        H165   1.083       .  S
C150        C151   1.405       .  A
C150        H166   1.083       .  S
C151        C161   1.407       .  A
C151        C152   1.411   1_455  A
C152        C158   1.412       .  A
C152        C153   1.413       .  A
C153        C155   1.412       .  A
C153        C154   1.413   1_655  A
C154        C162   1.408       .  A
C155        C164   1.401       .  A
C155        C156   1.403       .  A
C156        C157   1.398       .  A
C156        H167   1.084       .  S
C157        C158   1.403       .  A
C157        H168   1.084       .  S
C158        C159   1.402       .  A
C159        C160   1.407       .  A
C159        H169   1.084       .  S
C160        C161   1.409   1_655  A
C161        H170   1.084       .  S
C162        C163   1.404   1_455  A
C162        H171   1.084       .  S
C163        C164   1.403       .  A
C164        H172   1.085       .  S
C173        C174   1.396       .  A
C173        C178   1.402       .  A
C173        H189   1.084       .  S
C174        C175   1.403       .  A
C174        H190   1.084       .  S
C175        C185   1.398       .  A
C175        C540   1.409   1_554  A
C176        C182   1.411       .  A
C176        C177   1.412       .  A
C176        C539   1.410       .  A
C177        C179   1.412       .  A
C177        C542   1.411       .  A
C178        C186   1.398       .  A
C178        C541   1.411   1_554  A
C179        C188   1.407       .  A
C179        C180   1.405       .  A
C180        C181   1.402       .  A
C180        H191   1.084       .  S
C181        C182   1.405       .  A
C181        H192   1.083       .  S
C182        C183   1.408       .  A
C183        C184   1.407       .  A
C183        H193   1.076       .  S
C184        C549   1.408       .  A
C185        C548   1.409   1_554  A
C185        H194   1.084       .  S
C186        C551   1.405       .  A
C186        H195   1.084       .  S
C187        C188   1.407       .  A
C187        C550   1.404       .  A
C188        H196   1.084       .  S
C197        C198   1.397       .  A
C197        C202   1.403       .  A
C197        H213   1.084       .  S
C198        C199   1.403       .  A
C198        H214   1.084       .  S
C199        C209   1.401       .  A
C199        C564   1.411   1_556  A
C200        C206   1.409       .  A
C200        C201   1.409       .  A
C200        C563   1.411       .  A
C201        C203   1.411       .  A
C201        C566   1.409       .  A
C202        C210   1.398       .  A
C202        C565   1.409       .  A
C203        C212   1.400       .  A
C203        C204   1.402       .  A
C204        C205   1.397       .  A
C204        H215   1.084       .  S
C205        C206   1.403       .  A
C205        H216   1.084       .  S
C206        C207   1.398       .  A
C207        C208   1.409       .  A
C207        H217   1.083       .  S
C208        C573   1.406       .  A
C209        C572   1.406   1_556  A
C209        H218   1.082       .  S
C210        C211   1.409       .  A
C210        H219   1.083       .  S
C211        C576   1.406   1_556  A
C212        C575   1.406       .  A
C212        H220   1.082       .  S
C221        C222   1.399       .  A
C221        C226   1.403       .  A
C221        H237   1.084       .  S
C222        C223   1.404       .  A
C222        H238   1.084       .  S
C223        C233   1.403       .  A
C223        C224   1.412       .  A
C224        C230   1.411   1_565  A
C224        C225   1.413       .  A
C225        C227   1.413   1_565  A
C225        C226   1.412       .  A
C226        C234   1.401       .  A
C227        C236   1.406       .  A
C227        C228   1.403       .  A
C228        C229   1.401       .  A
C228        H239   1.084       .  S
C229        C230   1.404       .  A
C229        H240   1.083       .  S
C230        C231   1.406       .  A
C231        C232   1.408   1_545  A
C231        H241   1.084       .  S
C232        C233   1.408       .  A
C233        H242   1.084       .  S
C234        C235   1.403       .  A
C234        H243   1.085       .  S
C235        C236   1.403   1_565  A
C236        H244   1.084       .  S
C245        C246   1.396       .  A
C245        C250   1.402       .  A
C245        H261   1.084       .  S
C246        C247   1.403       .  A
C246        H262   1.084       .  S
C247        C257   1.399       .  A
C247        C248   1.409   1_565  A
C248        C254   1.410       .  A
C248        C249   1.412       .  A
C249        C251   1.411       .  A
C249        C250   1.411   1_545  A
C250        C258   1.400       .  A
C251        C260   1.404       .  A
C251        C252   1.404       .  A
C252        C253   1.400       .  A
C252        H263   1.084       .  S
C253        C254   1.404       .  A
C253        H264   1.084       .  S
C254        C255   1.405       .  A
C255        C256   1.412       .  A
C255        H265   1.083       .  S
C256        C257   1.410   1_545  A
C257        H266   1.082       .  S
C258        C259   1.406   1_565  A
C258        H267   1.084       .  S
C259        C260   1.410       .  A
C260        H268   1.084       .  S
C269        C270   1.395       .  A
C269        C274   1.402   1_554  A
C269        H285   1.084       .  S
C270        C271   1.402       .  A
C270        H286   1.084       .  S
C271        C281   1.399       .  A
C271        C636   1.412   1_554  A
C272        C278   1.411       .  A
C272        C273   1.414       .  A
C272        C635   1.411       .  A
C273        C275   1.411       .  A
C273        C638   1.410       .  A
C274        C282   1.397       .  A
C274        C637   1.409       .  A
C275        C284   1.410       .  A
C275        C276   1.405       .  A
C276        C277   1.403       .  A
C276        H287   1.083       .  S
C277        C278   1.405       .  A
C277        H288   1.084       .  S
C278        C279   1.408       .  A
C279        C280   1.409       .  A
C279        H289   1.084       .  S
C280        C645   1.406       .  A
C281        C644   1.404       .  A
C281        H290   1.084       .  S
C282        C647   1.409       .  A
C282        H291   1.084   1_556  S
C283        C284   1.408       .  A
C283        C646   1.409       .  A
C284        H292   1.076       .  S
C293        C294   1.401       .  A
C293        C298   1.404       .  A
C293        H309   1.084       .  S
C294        C295   1.405       .  A
C294        H310   1.084       .  S
C295        C305   1.405       .  A
C295        C660   1.411       .  A
C296        C302   1.410       .  A
C296        C297   1.412       .  A
C296        C659   1.412       .  A
C297        C299   1.413       .  A
C297        C662   1.412       .  A
C298        C306   1.405       .  A
C298        C661   1.413       .  A
C299        C308   1.402       .  A
C299        C300   1.403       .  A
C300        C301   1.398       .  A
C300        H311   1.084       .  S
C301        C302   1.404       .  A
C301        H312   1.084       .  S
C302        C303   1.401       .  A
C303        C668   1.408       .  A
C303        H313   1.083       .  S
C304        C305   1.410       .  A
C304        C667   1.407       .  A
C305        H314   1.083       .  S
C306        C671   1.403   1_556  A
C306        H315   1.085       .  S
C307        C308   1.401       .  A
C307        C670   1.402       .  A
C308        H316   1.085       .  S
C317        C318   1.402       .  A
C317        C322   1.404       .  A
C317        H333   1.083       .  S
C318        C319   1.405       .  A
C318        H334   1.083       .  S
C319        C329   1.407       .  A
C319        C320   1.412       .  A
C320        C326   1.412   1_565  A
C320        C321   1.413       .  A
C321        C323   1.411   1_565  A
C321        C322   1.413       .  A
C322        C330   1.408       .  A
C323        C332   1.401       .  A
C323        C324   1.403       .  A
C324        C325   1.398       .  A
C324        H335   1.084       .  S
C325        C326   1.403       .  A
C325        H336   1.084       .  S
C326        C327   1.402       .  A
C327        C328   1.406   1_545  A
C327        H337   1.084       .  S
C328        C329   1.408       .  A
C329        H338   1.084       .  S
C330        C331   1.405       .  A
C330        H339   1.084       .  S
C331        C332   1.405   1_565  A
C332        H340   1.085       .  S
C341        C342   1.403       .  A
C341        C346   1.405       .  A
C341        H357   1.083       .  S
C342        C343   1.405       .  A
C342        H358   1.084       .  S
C343        C353   1.408       .  A
C343        C344   1.409   1_545  A
C344        C350   1.410       .  A
C344        C345   1.416       .  A
C345        C347   1.410       .  A
C345        C346   1.412   1_565  A
C346        C354   1.410       .  A
C347        C356   1.403       .  A
C347        C348   1.403       .  A
C348        C349   1.398       .  A
C348        H359   1.084       .  S
C349        C350   1.404       .  A
C349        H360   1.084       .  S
C350        C351   1.404       .  A
C351        C352   1.413       .  A
C351        H361   1.079       .  S
C352        C353   1.414   1_565  A
C353        H362   1.084       .  S
C354        C355   1.410       .  A
C354        H363   1.084       .  S
C355        C356   1.408   1_545  A
C356        H364   1.084       .  S
C365        C366   1.541   1_565  S
C365        C371   1.531       .  S
C365        C369   1.543       .  S
C365        C716   1.530       .  S
C366        H373   1.085       .  S
C367        C368   1.532   1_544  S
C367        C671   1.469       .  S
C368        C372   1.534       .  S
C368        C370   1.537   1_556  S
C368        H374   1.111       .  S
C369        H375   1.085       .  S
C370        C644   1.489       .  S
C372        C695   1.472       .  S
O377       Ni385   1.918       .  S
O377        C387   1.281   1_565  A
O378       Ni385   1.915       .  S
O378        C388   1.282   1_565  A
O379       Ni385   1.918       .  S
O379        C389   1.281   1_565  A
O380       Ni385   1.917       .  S
O380        C390   1.282   1_565  A
O381       Ni386   1.924       .  S
O381        C390   1.283       .  A
O382       Ni386   1.920       .  S
O382        C389   1.283       .  A
O383       Ni386   1.921       .  S
O383        C388   1.282       .  A
O384       Ni386   1.916       .  S
O384        C387   1.282       .  A
Ni385      Ni386   2.386   1_565  S
C387        C692   1.479   1_545  S
C388        C623   1.482       .  S
C389        C596   1.480       .  S
C390        C719   1.487       .  S
C391        C392   1.545       .  S
C391        C397   1.533       .  S
C391        C395   1.536   1_565  S
C391        C620   1.529   1_565  S
C392        H399   1.082       .  S
C393        C394   1.536   1_565  S
C393        C551   1.486       .  S
C394        C398   1.538   1_554  S
C394        C396   1.547       .  S
C394        H400   1.108   1_544  S
C395        H401   1.085       .  S
C396        C572   1.490       .  S
C398        C599   1.475       .  S
C403        C404   1.539   1_655  S
C403        C409   1.532       .  S
C403        C407   1.542       .  S
C403        C500   1.529       .  S
C404        H411   1.085       .  S
C405        C406   1.540   1_455  S
C405        C668   1.490       .  S
C406        C410   1.531       .  S
C406        C408   1.539       .  S
C406        H412   1.107       .  S
C407        H413   1.078       .  S
C408        C575   1.487       .  S
C410        C527   1.471       .  S
O415       Ni423   1.913       .  S
O415        C425   1.281   1_455  A
O416       Ni423   1.911       .  S
O416        C426   1.280   1_455  A
O417       Ni423   1.922       .  S
O417        C427   1.283   1_455  A
O418       Ni423   1.925       .  S
O418        C428   1.284   1_455  A
O419       Ni424   1.919       .  S
O419        C428   1.282       .  A
O420       Ni424   1.914       .  S
O420        C427   1.281       .  A
O421       Ni424   1.920       .  S
O421        C426   1.283       .  A
O422       Ni424   1.922       .  S
O422        C425   1.283       .  A
Ni423      Ni424   2.386   1_455  S
C425        C476   1.482       .  S
C426        C503   1.478       .  S
C427        C524   1.481       .  S
C428        C452   1.488       .  S
C429        C430   1.534   1_655  S
C429        C433   1.537       .  S
C429        C479   1.533       .  S
C430        H437   1.086       .  S
C431        C432   1.549   1_455  S
C431        C647   1.495       .  S
C432        C436   1.546       .  S
C432        C434   1.551       .  S
C432        H438   1.110       .  S
C433        H439   1.081       .  S
C434        C548   1.493       .  S
C435        H440   1.087       .  S
C435        C436   1.363       .  D
C436        C455   1.476       .  S
C441        C442   1.399       .  A
C441        C446   1.403       .  A
C441        H457   1.084       .  S
C442        C443   1.404       .  A
C442        H458   1.083       .  S
C443        C453   1.405       .  A
C443        C444   1.412   1_455  A
C444        C450   1.411       .  A
C444        C445   1.414       .  A
C445        C447   1.413       .  A
C445        C446   1.412   1_655  A
C446        C454   1.404       .  A
C447        C456   1.406       .  A
C447        C448   1.404       .  A
C448        C449   1.401       .  A
C448        H459   1.084       .  S
C449        C450   1.405       .  A
C449        H460   1.084       .  S
C450        C451   1.406       .  A
C451        C452   1.410       .  A
C451        H461   1.084       .  S
C452        C453   1.408   1_655  A
C453        H462   1.084       .  S
C454        C455   1.403   1_455  A
C454        H463   1.085       .  S
C455        C456   1.404       .  A
C456        H464   1.084       .  S
C465        C466   1.399       .  A
C465        C470   1.405       .  A
C465        H481   1.084       .  S
C466        C467   1.403       .  A
C466        H482   1.084       .  S
C467        C477   1.405       .  A
C467        C468   1.412       .  A
C468        C474   1.410   1_655  A
C468        C469   1.413       .  A
C469        C471   1.410   1_655  A
C469        C470   1.409       .  A
C470        C478   1.403       .  A
C471        C480   1.403       .  A
C471        C472   1.403       .  A
C472        C473   1.399       .  A
C472        H483   1.084       .  S
C473        C474   1.404       .  A
C473        H484   1.084       .  S
C474        C475   1.402       .  A
C475        C476   1.408   1_455  A
C475        H485   1.084       .  S
C476        C477   1.407       .  A
C477        H486   1.084       .  S
C478        C479   1.414       .  A
C478        H487   1.078       .  S
C479        C480   1.411   1_655  A
C480        H488   1.084       .  S
C489        C490   1.397       .  A
C489        C494   1.402       .  A
C489        H505   1.084       .  S
C490        C491   1.404       .  A
C490        H506   1.084       .  S
C491        C501   1.400       .  A
C491        C492   1.408       .  A
C492        C498   1.410   1_655  A
C492        C493   1.411       .  A
C493        C495   1.410   1_655  A
C493        C494   1.412       .  A
C494        C502   1.401       .  A
C495        C504   1.402       .  A
C495        C496   1.404       .  A
C496        C497   1.399       .  A
C496        H507   1.084       .  S
C497        C498   1.403       .  A
C497        H508   1.084       .  S
C498        C499   1.403       .  A
C499        C500   1.410   1_455  A
C499        H509   1.084       .  S
C500        C501   1.413       .  A
C501        H510   1.076       .  S
C502        C503   1.405       .  A
C502        H511   1.084       .  S
C503        C504   1.408   1_655  A
C504        H512   1.084       .  S
C513        C514   1.399       .  A
C513        C518   1.403       .  A
C513        H529   1.084       .  S
C514        C515   1.404       .  A
C514        H530   1.083       .  S
C515        C525   1.404       .  A
C515        C516   1.412   1_455  A
C516        C522   1.411       .  A
C516        C517   1.411       .  A
C517        C519   1.412       .  A
C517        C518   1.413   1_655  A
C518        C526   1.403       .  A
C519        C528   1.402       .  A
C519        C520   1.403       .  A
C520        C521   1.398       .  A
C520        H531   1.084       .  S
C521        C522   1.404       .  A
C521        H532   1.084       .  S
C522        C523   1.402       .  A
C523        C524   1.408       .  A
C523        H533   1.084       .  S
C524        C525   1.407   1_655  A
C525        H534   1.084       .  S
C526        C527   1.401   1_455  A
C526        H535   1.085       .  S
C527        C528   1.402       .  A
C528        H536   1.085       .  S
C537        C538   1.396       .  A
C537        C542   1.402       .  A
C537        H553   1.084       .  S
C538        C539   1.403       .  A
C538        H554   1.084       .  S
C539        C549   1.399       .  A
C540        C546   1.412       .  A
C540        C541   1.413       .  A
C541        C543   1.412       .  A
C542        C550   1.399       .  A
C543        C552   1.408       .  A
C543        C544   1.405       .  A
C544        C545   1.403       .  A
C544        H555   1.083       .  S
C545        C546   1.405       .  A
C545        H556   1.084       .  S
C546        C547   1.409       .  A
C547        C548   1.408       .  A
C547        H557   1.080       .  S
C549        H558   1.084       .  S
C550        H559   1.084       .  S
C551        C552   1.409   1_554  A
C552        H560   1.084       .  S
C561        C562   1.398       .  A
C561        C566   1.404       .  A
C561        H577   1.084       .  S
C562        C563   1.403       .  A
C562        H578   1.084       .  S
C563        C573   1.401       .  A
C564        C570   1.409       .  A
C564        C565   1.410   1_554  A
C565        C567   1.412   1_556  A
C566        C574   1.399       .  A
C567        C576   1.404       .  A
C567        C568   1.403       .  A
C568        C569   1.399       .  A
C568        H579   1.084       .  S
C569        C570   1.404       .  A
C569        H580   1.084       .  S
C570        C571   1.401       .  A
C571        C572   1.410       .  A
C571        H581   1.082       .  S
C573        H582   1.082       .  S
C574        C575   1.410       .  A
C574        H583   1.082       .  S
C576        H584   1.083       .  S
C585        C586   1.402       .  A
C585        C590   1.404       .  A
C585        H601   1.083       .  S
C586        C587   1.405       .  A
C586        H602   1.084       .  S
C587        C597   1.407       .  A
C587        C588   1.412   1_565  A
C588        C594   1.411       .  A
C588        C589   1.412       .  A
C589        C591   1.412       .  A
C589        C590   1.413   1_545  A
C590        C598   1.407       .  A
C591        C600   1.399       .  A
C591        C592   1.402       .  A
C592        C593   1.397       .  A
C592        H603   1.084       .  S
C593        C594   1.403       .  A
C593        H604   1.084       .  S
C594        C595   1.401       .  A
C595        C596   1.405       .  A
C595        H605   1.084       .  S
C596        C597   1.409   1_545  A
C597        H606   1.084       .  S
C598        C599   1.404   1_565  A
C598        H607   1.084       .  S
C599        C600   1.403       .  A
C600        H608   1.085       .  S
C609        C610   1.397       .  A
C609        C614   1.402       .  A
C609        H625   1.084       .  S
C610        C611   1.403       .  A
C610        H626   1.084       .  S
C611        C621   1.402       .  A
C611        C612   1.410   1_565  A
C612        C618   1.409       .  A
C612        C613   1.412       .  A
C613        C615   1.412       .  A
C613        C614   1.410   1_545  A
C614        C622   1.400       .  A
C615        C624   1.406       .  A
C615        C616   1.404       .  A
C616        C617   1.400       .  A
C616        H627   1.084       .  S
C617        C618   1.404       .  A
C617        H628   1.084       .  S
C618        C619   1.403       .  A
C619        C620   1.412       .  A
C619        H629   1.084       .  S
C620        C621   1.411   1_545  A
C621        H630   1.078       .  S
C622        C623   1.406   1_565  A
C622        H631   1.084       .  S
C623        C624   1.409       .  A
C624        H632   1.084       .  S
C633        C634   1.398       .  A
C633        C638   1.403       .  A
C633        H649   1.084       .  S
C634        C635   1.403       .  A
C634        H650   1.083       .  S
C635        C645   1.402       .  A
C636        C642   1.411       .  A
C636        C637   1.414       .  A
C637        C639   1.413       .  A
C638        C646   1.401       .  A
C639        C648   1.412       .  A
C639        C640   1.405       .  A
C640        C641   1.404       .  A
C640        H651   1.084       .  S
C641        C642   1.406       .  A
C641        H652   1.083       .  S
C642        C643   1.410       .  A
C643        C644   1.410   1_556  A
C643        H653   1.084       .  S
C645        H654   1.084       .  S
C646        H655   1.084       .  S
C647        C648   1.409       .  A
C648        H656   1.080       .  S
C657        C658   1.400       .  A
C657        C662   1.404       .  A
C657        H673   1.084       .  S
C658        C659   1.404       .  A
C658        H674   1.083       .  S
C659        C669   1.406       .  A
C660        C666   1.410       .  A
C660        C661   1.411       .  A
C661        C663   1.413   1_556  A
C662        C670   1.404       .  A
C663        C672   1.400       .  A
C663        C664   1.402       .  A
C664        C665   1.397       .  A
C664        H675   1.084       .  S
C665        C666   1.403   1_554  A
C665        H676   1.084       .  S
C666        C667   1.400       .  A
C667        H677   1.082   1_556  S
C668        C669   1.408       .  A
C669        H678   1.084       .  S
C670        H679   1.085       .  S
C671        C672   1.400       .  A
C672        H680   1.085       .  S
C681        C682   1.401       .  A
C681        C686   1.404       .  A
C681        H697   1.083       .  S
C682        C683   1.404       .  A
C682        H698   1.084       .  S
C683        C693   1.405       .  A
C683        C684   1.411       .  A
C684        C690   1.412   1_565  A
C684        C685   1.412       .  A
C685        C687   1.412   1_565  A
C685        C686   1.413       .  A
C686        C694   1.406       .  A
C687        C696   1.399       .  A
C687        C688   1.402       .  A
C688        C689   1.397       .  A
C688        H699   1.084       .  S
C689        C690   1.403       .  A
C689        H700   1.084       .  S
C690        C691   1.401       .  A
C691        C692   1.406   1_545  A
C691        H701   1.084       .  S
C692        C693   1.408       .  A
C693        H702   1.084       .  S
C694        C695   1.403       .  A
C694        H703   1.084       .  S
C695        C696   1.402   1_565  A
C696        H704   1.085       .  S
C705        C706   1.401       .  A
C705        C710   1.404       .  A
C705        H721   1.083       .  S
C706        C707   1.405       .  A
C706        H722   1.084       .  S
C707        C717   1.405       .  A
C707        C708   1.409   1_545  A
C708        C714   1.410       .  A
C708        C709   1.414       .  A
C709        C711   1.410       .  A
C709        C710   1.412   1_565  A
C710        C718   1.407       .  A
C711        C720   1.402       .  A
C711        C712   1.403       .  A
C712        C713   1.398       .  A
C712        H723   1.084       .  S
C713        C714   1.403       .  A
C713        H724   1.083       .  S
C714        C715   1.403       .  A
C715        C716   1.411       .  A
C715        H725   1.082       .  S
C716        C717   1.413   1_565  A
C717        H726   1.082       .  S
C718        C719   1.410       .  A
C718        H727   1.084       .  S
C719        C720   1.408   1_545  A
C720        H728   1.084       .  S
