geometry optimzed in LAMMPS
_audit_creation_date              2020-11-30 
_audit_creation_method            'lammps2cif' 
_symmetry_space_group_name_H-M    'P1' 
_symmetry_Int_Tables_number       1 
_symmetry_cell_setting            triclinic 
loop_ 
_symmetry_equiv_pos_as_xyz 
  x,y,z 
_cell_length_a                    61.82238858 
_cell_length_b                    61.82215050936514 
_cell_length_c                    61.823664315734625 
_cell_angle_alpha                 89.99872519317312 
_cell_angle_beta                  90.0002140077194 
_cell_angle_gamma                 89.99264504221031 
loop_ 
_atom_site_label 
_atom_site_type_symbol 
_atom_site_fract_x 
_atom_site_fract_y 
_atom_site_fract_z 
_atom_site_charge 
Zn1        Zn  0.48163890  0.48157025  0.98165476     1.49700
Zn2        Zn  0.49387611  0.49382773  0.03067952     1.49400
Zn3        Zn  0.53063912  0.49383016  0.99395492     1.49100
Zn4        Zn  0.49383470  0.53055089  0.99387892     1.49500
O5          O  0.49999968  0.49994065  0.00004377    -1.80200
O6          O  0.46235446  0.46232074  0.99975952    -0.70800
O7          O  0.52067416  0.48325934  0.04622018    -0.70700
O8          O  0.53373746  0.47074034  0.97095891    -0.70200
O9          O  0.47080189  0.47081121  0.03372353    -0.70900
O10         O  0.49978122  0.46224443  0.96247700    -0.70500
O11         O  0.54614336  0.48331568  0.02076461    -0.71000
O12         O  0.52064285  0.54609154  0.98339655    -0.70400
O13         O  0.48336557  0.52066733  0.04618728    -0.71200
O14         O  0.54615106  0.52066460  0.98348377    -0.70600
O15         O  0.48331584  0.54608136  0.02067287    -0.71000
O16         O  0.47075277  0.53360721  0.97085082    -0.71000
O17         O  0.46232929  0.49964706  0.96234132    -0.70700
C18         C  0.45991837  0.45992419  0.02005707     0.81000
C19         C  0.54006795  0.47999173  0.04014453     0.81500
C20         C  0.52008276  0.45981293  0.96010094     0.80500
C21         C  0.54005442  0.54004625  0.98018166     0.80900
C22         C  0.48004944  0.54004285  0.04007532     0.82000
C23         C  0.45986946  0.51994710  0.95995539     0.81100
Zn24       Zn  0.48154314  0.98164986  0.48145305     1.49700
Zn25       Zn  0.53056140  0.99391000  0.49374785     1.49400
Zn26       Zn  0.49382981  0.03067053  0.49376219     1.49100
Zn27       Zn  0.49374093  0.99378998  0.53042565     1.49500
O28         O  0.49992078  0.00001495  0.49983623    -1.80200
O29         O  0.49966992  0.96240366  0.46217791    -0.70800
O30         O  0.54611157  0.02072789  0.48319188    -0.70700
O31         O  0.47074492  0.03374914  0.47074963    -0.70200
O32         O  0.53361766  0.97087504  0.47071214    -0.70900
O33         O  0.46227481  0.99979722  0.46222059    -0.70500
O34         O  0.52064648  0.04619445  0.48314729    -0.71000
O35         O  0.48319654  0.02054438  0.54599610    -0.70400
O36         O  0.54601930  0.98326120  0.52055919    -0.71200
O37         O  0.48328872  0.04612150  0.52063906    -0.70600
O38         O  0.52047808  0.98312272  0.54594507    -0.71000
O39         O  0.47070039  0.97077607  0.53344938    -0.71000
O40         O  0.46226564  0.96230046  0.49948924    -0.70700
C41         C  0.51997397  0.95998708  0.45980480     0.81000
C42         C  0.54003521  0.04011086  0.47984086     0.81500
C43         C  0.45985758  0.02010080  0.45984188     0.80500
C44         C  0.47992509  0.03995811  0.53999228     0.80900
C45         C  0.53987813  0.97984213  0.53990614     0.82000
C46         C  0.45984148  0.95987517  0.51978424     0.81100
Zn47       Zn  0.01836856  0.51838299  0.51831815     1.49700
Zn48       Zn  0.00607649  0.50608049  0.46933842     1.49400
Zn49       Zn  0.00610328  0.46934282  0.50610995     1.49100
Zn50       Zn  0.96937366  0.50618776  0.50619227     1.49500
O51         O  0.99997427  0.49998305  0.49998301    -1.80200
O52         O  0.03766167  0.53756637  0.50020166    -0.70800
O53         O  0.01665968  0.47926791  0.45381720    -0.70700
O54         O  0.02913194  0.46634070  0.52919257    -0.70200
O55         O  0.02914363  0.52908216  0.46625789    -0.70900
O56         O  0.03761901  0.50031806  0.53759016    -0.70500
O57         O  0.01676853  0.45381920  0.47929971    -0.71000
O58         O  0.95382905  0.47938314  0.51681158    -0.70400
O59         O  0.97926373  0.51675774  0.45388247    -0.71200
O60         O  0.97924698  0.45385996  0.51670332    -0.70600
O61         O  0.95386335  0.51688733  0.47941679    -0.71000
O62         O  0.96640456  0.52924428  0.52923391    -0.71000
O63         O  0.00037259  0.53776503  0.53759380    -0.70700
C64         C  0.04005693  0.53996042  0.47990353     0.81000
C65         C  0.02006255  0.45990022  0.45990750     0.81500
C66         C  0.04002386  0.48002763  0.54004693     0.80500
C67         C  0.95988173  0.45997886  0.52009920     0.80900
C68         C  0.95991549  0.52019488  0.46001969     0.82000
C69         C  0.98008006  0.54017359  0.54005701     0.81100
Zn70       Zn  0.01843014  0.01825555  0.01825832     1.49700
Zn71       Zn  0.00615835  0.96923610  0.00597822     1.49400
Zn72       Zn  0.96946589  0.00605829  0.00606646     1.49100
Zn73       Zn  0.00618689  0.00599540  0.96925504     1.49500
O74         O  0.00006369  0.99988173  0.99988442    -1.80200
O75         O  0.03771234  0.00011567  0.03748894    -0.70800
O76         O  0.97935247  0.95374571  0.01651968    -0.70700
O77         O  0.96642380  0.02907130  0.02915321    -0.70200
O78         O  0.02917490  0.96615811  0.02905056    -0.70900
O79         O  0.00038582  0.03751619  0.03761144    -0.70500
O80         O  0.95393494  0.97926046  0.01658179    -0.71000
O81         O  0.97937795  0.01652663  0.95378164    -0.70400
O82         O  0.01666105  0.95369775  0.97916172    -0.71200
O83         O  0.95395403  0.01666264  0.97928824    -0.70600
O84         O  0.01670206  0.97917840  0.95371287    -0.71000
O85         O  0.02915273  0.02912847  0.96618197    -0.71000
O86         O  0.03759523  0.03762154  0.00014639    -0.70700
C87         C  0.04008160  0.97981316  0.03993017     0.81000
C88         C  0.95998536  0.95986115  0.01985831     0.81500
C89         C  0.98009201  0.03994406  0.04004505     0.80500
C90         C  0.96001714  0.01990928  0.95988854     0.80900
C91         C  0.01996505  0.95977964  0.95977735     0.82000
C92         C  0.03997833  0.04007423  0.97984914     0.81100
Zn93       Zn  0.51836959  0.73156284  0.23156979     1.49700
Zn94       Zn  0.50623490  0.78057460  0.24384422     1.49400
Zn95       Zn  0.46936378  0.74387516  0.24384362     1.49100
Zn96       Zn  0.50609776  0.74379737  0.28059961     1.49500
O97         O  0.50001422  0.74995315  0.24996426    -1.80200
O98         O  0.53772052  0.74963866  0.21231031    -0.70800
O99         O  0.47945805  0.79614919  0.23326822    -0.70700
O100        O  0.46626305  0.72090639  0.22071712    -0.70200
O101        O  0.52928770  0.78360237  0.22080514    -0.70900
O102        O  0.50021222  0.71237696  0.21224337    -0.70500
O103        O  0.45393526  0.77073958  0.23332861    -0.71000
O104        O  0.47925684  0.73326254  0.29610382    -0.70400
O105        O  0.51682989  0.79605275  0.27065840    -0.71200
O106        O  0.45379964  0.73327138  0.27063416    -0.70600
O107        O  0.51670562  0.77059293  0.29613048    -0.71000
O108        O  0.52910255  0.72070174  0.28364382    -0.71000
O109        O  0.53758314  0.71220725  0.24968785    -0.70700
C110        C  0.54016190  0.76993728  0.20990799     0.81000
C111        C  0.46005807  0.79010287  0.22997676     0.81500
C112        C  0.47990856  0.71001340  0.20980943     0.80500
C113        C  0.45987207  0.72994979  0.29002180     0.80900
C114        C  0.52008858  0.78996748  0.29005055     0.82000
C115        C  0.53998100  0.70978937  0.26999097     0.81100
Zn116      Zn  0.49387375  0.21940873  0.75600260     1.49700
Zn117      Zn  0.53058613  0.25618129  0.75607070     1.49400
Zn118      Zn  0.49389767  0.25610915  0.71920861     1.49100
Zn119      Zn  0.48160996  0.26846140  0.76820272     1.49500
O120        O  0.49998399  0.25003934  0.74986151    -1.80200
O121        O  0.52063572  0.20393393  0.76680483    -0.70800
O122        O  0.54612803  0.26682072  0.72930487    -0.70700
O123        O  0.48344041  0.22923541  0.70368860    -0.70200
O124        O  0.54609263  0.22940017  0.76671728    -0.70900
O125        O  0.48339518  0.20380100  0.72918412    -0.70500
O126        O  0.52072597  0.26680888  0.70377176    -0.71000
O127        O  0.46239587  0.28772337  0.75006288    -0.70400
O128        O  0.53361418  0.27917511  0.77915338    -0.71200
O129        O  0.47076708  0.27907435  0.71611766    -0.70600
O130        O  0.49965624  0.28771740  0.78754355    -0.71000
O131        O  0.46228926  0.25038867  0.78744184    -0.71000
O132        O  0.47077394  0.21643259  0.77894356    -0.70700
C133        C  0.54001114  0.21003612  0.77014011     0.81000
C134        C  0.54008754  0.27017057  0.70991227     0.81500
C135        C  0.48012259  0.20985278  0.70978040     0.80500
C136        C  0.45992514  0.29003379  0.72976186     0.80900
C137        C  0.51995133  0.29007815  0.79002062     0.82000
C138        C  0.45988239  0.23008624  0.78983116     0.81100
Zn139      Zn  0.26832771  0.48150226  0.76837437     1.49700
Zn140      Zn  0.25615132  0.53052014  0.75603405     1.49400
Zn141      Zn  0.25615521  0.49374721  0.71933326     1.49100
Zn142      Zn  0.21938874  0.49379372  0.75604255     1.49500
O143        O  0.25001583  0.49988943  0.74995078    -1.80200
O144        O  0.28752902  0.49963476  0.78773056    -0.70800
O145        O  0.26665298  0.54600916  0.72920875    -0.70700
O146        O  0.27915309  0.47069189  0.71630750    -0.70200
O147        O  0.27915604  0.53359349  0.77912330    -0.70900
O148        O  0.28761927  0.46222352  0.75027639    -0.70500
O149        O  0.26664862  0.52052656  0.70376590    -0.71000
O150        O  0.20389529  0.48330779  0.72922886    -0.70400
O151        O  0.22934585  0.54608006  0.76648201    -0.71200
O152        O  0.22938763  0.48322120  0.70379782    -0.70600
O153        O  0.20388508  0.52061688  0.76652144    -0.71000
O154        O  0.21623860  0.47072326  0.77905532    -0.71000
O155        O  0.25016983  0.46217922  0.78756988    -0.70700
C156        C  0.28997142  0.51993968  0.79009994     0.81000
C157        C  0.26991365  0.53992359  0.70982028     0.81500
C158        C  0.29001870  0.45979363  0.72997604     0.80500
C159        C  0.20999039  0.47997941  0.70985672     0.80900
C160        C  0.20995697  0.54001162  0.76976824     0.82000
C161        C  0.22986301  0.45978480  0.78994249     0.81100
Zn162      Zn  0.39320282  0.39333953  0.89330099     1.49700
Zn163      Zn  0.35663265  0.39332493  0.85662330     1.49400
Zn164      Zn  0.39321391  0.35663970  0.85671798     1.49100
Zn165      Zn  0.35657837  0.35665922  0.89332130     1.49500
O166        O  0.37489664  0.37499010  0.87500090    -1.80200
O167        O  0.38748018  0.42495453  0.88782795    -0.70800
O168        O  0.36237897  0.38782350  0.82502144    -0.70700
O169        O  0.42480927  0.36221493  0.86232784    -0.70200
O170        O  0.36206526  0.42495661  0.86232304    -0.70900
O171        O  0.42480943  0.38786297  0.88760241    -0.70500
O172        O  0.38767931  0.36220182  0.82508246    -0.71000
O173        O  0.36215502  0.32499539  0.88773907    -0.70400
O174        O  0.32501898  0.38760157  0.86203410    -0.71200
O175        O  0.38762905  0.32504465  0.86229480    -0.70600
O176        O  0.32497607  0.36227970  0.88764404    -0.71000
O177        O  0.36217381  0.36229127  0.92494145    -0.71000
O178        O  0.38773257  0.38765774  0.92490993    -0.70700
C179        C  0.37473797  0.43489805  0.87511008     0.81000
C180        C  0.37505349  0.37501425  0.81510890     0.81500
C181        C  0.43474644  0.37505214  0.87494972     0.80500
C182        C  0.37489922  0.31507606  0.87499658     0.80900
C183        C  0.31505956  0.37491836  0.87479736     0.82000
C184        C  0.37496950  0.37497277  0.93486456     0.81100
N185        N  0.20738602  0.37463288  0.87468807     0.00400
C186        C  0.19438398  0.38695352  0.86223993     0.03000
C187        C  0.17294651  0.38230771  0.86657141    -0.19900
C188        C  0.17297344  0.36643402  0.88238757    -0.20100
C189        C  0.19442610  0.36211800  0.88698395     0.02900
H190        H  0.15888196  0.38959019  0.85911153     0.16700
H191        H  0.15893329  0.35892786  0.88966688     0.16700
N192        N  0.37518457  0.54257767  0.87476491     0.00400
C193        C  0.38756490  0.55556843  0.88716302     0.03000
C194        C  0.38312686  0.57701157  0.88263028    -0.19900
C195        C  0.36731020  0.57699629  0.86675468    -0.20100
C196        C  0.36281929  0.55554540  0.86232481     0.02900
H197        H  0.39047829  0.59107296  0.89002571     0.16700
H198        H  0.35992131  0.59104160  0.85936327     0.16700
N199        N  0.54240465  0.37501327  0.87496666     0.00400
C200        C  0.55538882  0.38738258  0.88737572     0.03000
C201        C  0.57683308  0.38301089  0.88280294    -0.19900
C202        C  0.57683038  0.36724122  0.86688679    -0.20100
C203        C  0.55538437  0.36271590  0.86247817     0.02900
H204        H  0.59088638  0.39039920  0.89017680     0.16700
H205        H  0.59088097  0.35992609  0.85943285     0.16700
N206        N  0.37472805  0.37476847  0.70741013     0.00400
C207        C  0.36236691  0.38715642  0.69439397     0.03000
C208        C  0.36695856  0.38276445  0.67295794    -0.19900
C209        C  0.38284639  0.36696750  0.67299529    -0.20100
C210        C  0.38721594  0.36245060  0.69445081     0.02900
H211        H  0.35964394  0.39018431  0.65888925     0.16700
H212        H  0.39033764  0.35965794  0.65896208     0.16700
N213        N  0.37514034  0.20738592  0.87461924     0.00400
C214        C  0.36258956  0.19451078  0.88696127     0.03000
C215        C  0.36695393  0.17302585  0.88256463    -0.19900
C216        C  0.38289837  0.17288638  0.86682252    -0.20100
C217        C  0.38753105  0.19429527  0.86233911     0.02900
H218        H  0.35944101  0.15903774  0.88993739     0.16700
H219        H  0.39023053  0.15877022  0.85950993     0.16700
N220        N  0.37505916  0.37491227  0.04253123     0.00400
C221        C  0.38746206  0.38728444  0.05551929     0.03000
C222        C  0.38305868  0.38273245  0.07696216    -0.19900
C223        C  0.36724336  0.36685918  0.07695119    -0.20100
C224        C  0.36272258  0.36245358  0.05550167     0.02900
H225        H  0.39046174  0.39008449  0.09101900     0.16700
H226        H  0.35990770  0.35942102  0.09099853     0.16700
Zn227      Zn  0.23176270  0.23155072  0.01834356     1.49700
Zn228      Zn  0.28079018  0.24374969  0.00600097     1.49400
Zn229      Zn  0.24399209  0.24367846  0.96929928     1.49100
Zn230      Zn  0.24399810  0.28051192  0.00596424     1.49500
O231        O  0.25014285  0.24987048  0.99990713    -1.80200
O232        O  0.24989023  0.21231338  0.03764878    -0.70800
O233        O  0.29629881  0.23312304  0.97916863    -0.70700
O234        O  0.22087621  0.22072221  0.96632194    -0.70200
O235        O  0.28384568  0.22080560  0.02915759    -0.70900
O236        O  0.21236380  0.21233182  0.00029383    -0.70500
O237        O  0.27077693  0.23306547  0.95376036    -0.71000
O238        O  0.23332970  0.29595272  0.97913503    -0.70400
O239        O  0.29629675  0.27059320  0.01650152    -0.71200
O240        O  0.23340521  0.27043809  0.95372442    -0.70600
O241        O  0.27081920  0.29605169  0.01647225    -0.71000
O242        O  0.22100574  0.28362061  0.02904989    -0.71000
O243        O  0.21254681  0.24968802  0.03763078    -0.70700
C244        C  0.27019389  0.20994090  0.04008372     0.81000
C245        C  0.29018269  0.22978531  0.95979499     0.81500
C246        C  0.20992866  0.20991505  0.97999637     0.80500
C247        C  0.23002100  0.28982227  0.95976421     0.80900
C248        C  0.29020633  0.28997949  0.01979875     0.82000
C249        C  0.21013786  0.26999144  0.03999480     0.81100
Zn250      Zn  0.76839513  0.48170388  0.26850756     1.49700
Zn251      Zn  0.71940119  0.49397975  0.25612831     1.49400
Zn252      Zn  0.75612080  0.53070850  0.25619836     1.49100
Zn253      Zn  0.75625002  0.49388080  0.21946309     1.49500
O254        O  0.75005228  0.50006817  0.25007482    -1.80200
O255        O  0.75020518  0.46251408  0.28779542    -0.70800
O256        O  0.70380664  0.52078290  0.26658534    -0.70700
O257        O  0.77915370  0.53378483  0.27927590    -0.70200
O258        O  0.71627101  0.47101795  0.27923031    -0.70900
O259        O  0.78763711  0.49983774  0.28781265    -0.70500
O260        O  0.72927959  0.54622693  0.26673659    -0.71000
O261        O  0.76670806  0.52068437  0.20392148    -0.70400
O262        O  0.70397991  0.48336330  0.22931556    -0.71200
O263        O  0.76662340  0.54619628  0.22934508    -0.70600
O264        O  0.72949854  0.48325538  0.20390597    -0.71000
O265        O  0.77934485  0.47088276  0.21646606    -0.71000
O266        O  0.78769666  0.46236090  0.25044630    -0.70700
C267        C  0.72989622  0.46014586  0.29018084     0.81000
C268        C  0.70987717  0.54015650  0.26996293     0.81500
C269        C  0.79003106  0.52014357  0.29020784     0.80500
C270        C  0.76993789  0.54009095  0.20996699     0.80900
C271        C  0.71009796  0.47998947  0.20995684     0.82000
C272        C  0.79017424  0.45996337  0.23014951     0.81100
Zn273      Zn  0.26830097  0.76828754  0.48143359     1.49700
Zn274      Zn  0.21928466  0.75610698  0.49366064     1.49400
Zn275      Zn  0.25596058  0.71928422  0.49369117     1.49100
Zn276      Zn  0.25606951  0.75601233  0.53043401     1.49500
O277        O  0.24990040  0.74992867  0.49980332    -1.80200
O278        O  0.25023815  0.78769058  0.46221287    -0.70800
O279        O  0.20373530  0.72932449  0.48303919    -0.70700
O280        O  0.27899456  0.71618596  0.47065602    -0.70200
O281        O  0.21626878  0.77925434  0.47068591    -0.70900
O282        O  0.28748670  0.75012790  0.46211406    -0.70500
O283        O  0.22915347  0.70381232  0.48314088    -0.71000
O284        O  0.26652957  0.72917742  0.54594561    -0.70400
O285        O  0.20378747  0.76655811  0.52052430    -0.71200
O286        O  0.26644170  0.70371363  0.52048648    -0.70600
O287        O  0.22928243  0.76654010  0.54596354    -0.71000
O288        O  0.27917470  0.77901161  0.53351705    -0.71000
O289        O  0.28766840  0.78745715  0.49955424    -0.70700
C290        C  0.22994019  0.79015398  0.45981846     0.81000
C291        C  0.20978851  0.70991948  0.47978173     0.81500
C292        C  0.28987800  0.72982064  0.45973098     0.80500
C293        C  0.26976337  0.70978070  0.53987036     0.80900
C294        C  0.20988626  0.76982577  0.53991150     0.82000
C295        C  0.29009432  0.78986746  0.51985208     0.81100
Zn296      Zn  0.60662222  0.60680552  0.14359361     1.49700
Zn297      Zn  0.64325293  0.60684145  0.10695622     1.49400
Zn298      Zn  0.60660038  0.64340716  0.10694058     1.49100
Zn299      Zn  0.64322369  0.64341603  0.14362323     1.49500
O300        O  0.62492116  0.62512483  0.12527999    -1.80200
O301        O  0.61223874  0.57522636  0.13798133    -0.70800
O302        O  0.63763514  0.61232983  0.07535806    -0.70700
O303        O  0.57499037  0.63782164  0.11253019    -0.70200
O304        O  0.63772950  0.57525542  0.11255074    -0.70900
O305        O  0.57502098  0.61232966  0.13796192    -0.70500
O306        O  0.61212729  0.63774245  0.07534448    -0.71000
O307        O  0.63764748  0.67500962  0.13800024    -0.70400
O308        O  0.67483897  0.61245670  0.11251408    -0.71200
O309        O  0.61225428  0.67500890  0.11246231    -0.70600
O310        O  0.67483396  0.63781917  0.13807142    -0.71000
O311        O  0.63764477  0.63782026  0.17522679    -0.71000
O312        O  0.61220108  0.61234721  0.17521721    -0.70700
C313        C  0.62499160  0.56530720  0.12526004     0.81000
C314        C  0.62485860  0.62500701  0.06541510     0.81500
C315        C  0.56506790  0.62504629  0.12522876     0.80500
C316        C  0.62496749  0.68494375  0.12521370     0.80900
C317        C  0.68477316  0.62513369  0.12529600     0.82000
C318        C  0.62493673  0.62506732  0.18516156     0.81100
N319        N  0.62492217  0.62508446  0.95778122     0.00400
C320        C  0.63730593  0.63746485  0.94478717     0.03000
C321        C  0.63288533  0.63291340  0.92334729    -0.19900
C322        C  0.61707811  0.61703143  0.92337178    -0.20100
C323        C  0.61258335  0.61262477  0.94482470     0.02900
H324        H  0.64028411  0.64025797  0.90928409     0.16700
H325        H  0.60974070  0.60957948  0.90933275     0.16700
N326        N  0.62513189  0.45767164  0.12502470     0.00400
C327        C  0.61290097  0.44470250  0.11246784     0.03000
C328        C  0.61748162  0.42325426  0.11681273    -0.19900
C329        C  0.63322647  0.42324148  0.13275424    -0.20100
C330        C  0.63752682  0.44468239  0.13740270     0.02900
H331        H  0.61023322  0.40920840  0.10928667     0.16700
H332        H  0.64066832  0.40918514  0.14007125     0.16700
N333        N  0.79242176  0.62489331  0.12495346     0.00400
C334        C  0.80539668  0.63729532  0.11257281     0.03000
C335        C  0.82684503  0.63278002  0.11699018    -0.19900
C336        C  0.82684996  0.61689309  0.13279211    -0.20100
C337        C  0.80540414  0.61244858  0.13728465     0.02900
H338        H  0.84089459  0.64016115  0.10960116     0.16700
H339        H  0.84090300  0.60947237  0.14013706     0.16700
N340        N  0.45741264  0.62479320  0.12513061     0.00400
C341        C  0.44443798  0.61251551  0.11262266     0.03000
C342        C  0.42299016  0.61704825  0.11702637    -0.19900
C343        C  0.42298688  0.63282377  0.13294133    -0.20100
C344        C  0.44443225  0.63719215  0.13751793     0.02900
H345        H  0.40893972  0.60977871  0.10952928     0.16700
H346        H  0.40893369  0.64026579  0.14026313     0.16700
N347        N  0.62495563  0.79258526  0.12493851     0.00400
C348        C  0.63729630  0.80551811  0.11245008     0.03000
C349        C  0.63277052  0.82697968  0.11679199    -0.19900
C350        C  0.61694260  0.82703474  0.13265609    -0.20100
C351        C  0.61253803  0.80560328  0.13726515     0.02900
H352        H  0.64010359  0.84100582  0.10931060     0.16700
H353        H  0.60952475  0.84111292  0.13995601     0.16700
N354        N  0.62497370  0.62497542  0.29281839     0.00400
C355        C  0.61252756  0.63734072  0.30577448     0.03000
C356        C  0.61690252  0.63280248  0.32722813    -0.19900
C357        C  0.63274078  0.61694369  0.32725195    -0.20100
C358        C  0.63730270  0.61253245  0.30581125     0.02900
H359        H  0.60945320  0.64013955  0.34126882     0.16700
H360        H  0.64005134  0.60950849  0.34131516     0.16700
Zn361      Zn  0.76845389  0.76841861  0.98169528     1.49700
Zn362      Zn  0.75618557  0.75611056  0.03067994     1.49400
Zn363      Zn  0.71945024  0.75617491  0.99386900     1.49100
Zn364      Zn  0.75616918  0.71938212  0.99389200     1.49500
O365        O  0.75006807  0.75002019  0.00003671    -1.80200
O366        O  0.78769959  0.78769352  0.99984042    -0.70800
O367        O  0.72934434  0.76661088  0.04618635    -0.70700
O368        O  0.71639850  0.77920257  0.97078671    -0.70200
O369        O  0.77922344  0.77917636  0.03379031    -0.70900
O370        O  0.75036783  0.78772042  0.96240434    -0.70500
O371        O  0.70393565  0.76674002  0.02066408    -0.71000
O372        O  0.72933042  0.70385879  0.98342356    -0.70400
O373        O  0.76671166  0.72927841  0.04616644    -0.71200
O374        O  0.70390150  0.72936061  0.98339603    -0.70600
O375        O  0.76674494  0.70384087  0.02067485    -0.71000
O376        O  0.77915920  0.71634180  0.97079072    -0.71000
O377        O  0.78772333  0.75030622  0.96240766    -0.70700
C378        C  0.79010044  0.79009650  0.02014269     0.81000
C379        C  0.70997634  0.76996899  0.04007379     0.81500
C380        C  0.73007168  0.79011677  0.95993823     0.80500
C381        C  0.70994676  0.70995679  0.98013553     0.80900
C382        C  0.77002262  0.70989933  0.04007067     0.82000
C383        C  0.79007623  0.73000495  0.95993250     0.81100
Zn384      Zn  0.14302082  0.60669399  0.64303972     1.49700
Zn385      Zn  0.10636235  0.60671519  0.60643607     1.49400
Zn386      Zn  0.10635167  0.64321472  0.64305384     1.49100
Zn387      Zn  0.14302781  0.64320269  0.60646226     1.49500
O388        O  0.12468646  0.62495766  0.62475193    -1.80200
O389        O  0.13741217  0.57516907  0.63746000    -0.70800
O390        O  0.07478898  0.61231659  0.61193613    -0.70700
O391        O  0.11191881  0.63762975  0.67463107    -0.70200
O392        O  0.11191758  0.57515152  0.61202603    -0.70900
O393        O  0.13746580  0.61225300  0.67461216    -0.70500
O394        O  0.07476975  0.63768556  0.63747826    -0.71000
O395        O  0.13743694  0.67474714  0.61203369    -0.70400
O396        O  0.11195446  0.61227007  0.57487299    -0.71200
O397        O  0.11193212  0.67476678  0.63745751    -0.70600
O398        O  0.13747880  0.63765811  0.57489816    -0.71000
O399        O  0.17461228  0.63764299  0.61201025    -0.71000
O400        O  0.17461613  0.61219206  0.63746786    -0.70700
C401        C  0.12467306  0.56523738  0.62474641     0.81000
C402        C  0.06484819  0.62501247  0.62468846     0.81500
C403        C  0.12469303  0.62493331  0.68455222     0.80500
C404        C  0.12468495  0.68468095  0.62473826     0.80900
C405        C  0.12472395  0.62496766  0.56495681     0.82000
C406        C  0.18454980  0.62491471  0.62473538     0.81100
N407        N  0.95726270  0.62490561  0.62495701     0.00400
C408        C  0.94437111  0.63729450  0.63743657     0.03000
C409        C  0.92289865  0.63279781  0.63312521    -0.19900
C410        C  0.92280171  0.61694232  0.61728389    -0.20100
C411        C  0.94422150  0.61249411  0.61265910     0.02900
H412        H  0.90889353  0.64018381  0.64059425     0.16700
H413        H  0.90870469  0.60955424  0.60999424     0.16700
N414        N  0.12499931  0.79225710  0.62489973     0.00400
C415        C  0.13742927  0.80522743  0.61254660     0.03000
C416        C  0.13290964  0.82667352  0.61696206    -0.19900
C417        C  0.11699531  0.82667626  0.63273694    -0.20100
C418        C  0.11253825  0.80523292  0.63721826     0.02900
H419        H  0.14029749  0.84072418  0.60958168     0.16700
H420        H  0.10956042  0.84072806  0.64006973     0.16700
N421        N  0.12487929  0.62495505  0.45736908     0.00400
C422        C  0.13732947  0.63727595  0.44438548     0.03000
C423        C  0.13284921  0.63279897  0.42294438    -0.19900
C424        C  0.11694037  0.61701948  0.42295809    -0.20100
C425        C  0.11244650  0.61259618  0.44440616     0.02900
H426        H  0.14026877  0.64013285  0.40888640     0.16700
H427        H  0.10954391  0.60963588  0.40891401     0.16700
N428        N  0.12470076  0.62467125  0.79215754     0.00400
C429        C  0.13714471  0.61231030  0.80511135     0.03000
C430        C  0.13270798  0.61677277  0.82656423    -0.19900
C431        C  0.11683400  0.63259060  0.82659127    -0.20100
C432        C  0.11231793  0.63704846  0.80515342     0.02900
H433        H  0.14015555  0.60942702  0.84060268     0.16700
H434        H  0.10948822  0.63998876  0.84065429     0.16700
N435        N  0.12514108  0.45767017  0.62487388     0.00400
C436        C  0.13745828  0.44466863  0.63730806     0.03000
C437        C  0.13289301  0.42323442  0.63289172    -0.19900
C438        C  0.11706129  0.42327245  0.61703426    -0.20100
C439        C  0.11269855  0.44472696  0.61250892     0.02900
H440        H  0.14019192  0.40916676  0.64032946     0.16700
H441        H  0.10959975  0.40923934  0.60969504     0.16700
N442        N  0.29217061  0.62510654  0.62500127     0.00400
C443        C  0.30510111  0.61267828  0.63740210     0.03000
C444        C  0.32656296  0.61705352  0.63292449    -0.19900
C445        C  0.32662210  0.63287426  0.61705617    -0.20100
C446        C  0.30519238  0.63742109  0.61258508     0.02900
H447        H  0.34058565  0.60959889  0.64029282     0.16700
H448        H  0.34070118  0.64016806  0.60963711     0.16700
Zn449      Zn  0.00608141  0.78061555  0.74380866     1.49700
Zn450      Zn  0.01834535  0.73166927  0.73149816     1.49400
Zn451      Zn  0.00609325  0.74378726  0.78050529     1.49100
Zn452      Zn  0.96934477  0.74384950  0.74376543     1.49500
O453        O  0.99995950  0.74998578  0.74990155    -1.80200
O454        O  0.02915246  0.78372196  0.72079236    -0.70800
O455        O  0.03759100  0.71232992  0.74951377    -0.70700
O456        O  0.01668978  0.77054539  0.79603647    -0.70200
O457        O  0.03763888  0.74976637  0.71231623    -0.70900
O458        O  0.01656602  0.79607631  0.77063600    -0.70500
O459        O  0.02908313  0.72067097  0.78349838    -0.71000
O460        O  0.95378991  0.73337662  0.77059299    -0.70400
O461        O  0.00029750  0.71248594  0.71212813    -0.71200
O462        O  0.97925293  0.73337020  0.79605744    -0.70600
O463        O  0.96631994  0.72082487  0.72067414    -0.71000
O464        O  0.95384008  0.77066634  0.73326055    -0.71000
O465        O  0.97927543  0.79615668  0.73331518    -0.70700
C466        C  0.04005218  0.77005990  0.70991403     0.81000
C467        C  0.03997750  0.70983086  0.76980143     0.81500
C468        C  0.01991506  0.78995482  0.78999715     0.80500
C469        C  0.95985400  0.73011912  0.78999269     0.80900
C470        C  0.98000674  0.71002328  0.70972418     0.82000
C471        C  0.95989432  0.79006714  0.73001433     0.81100
Zn472      Zn  0.85674175  0.85667390  0.85675994     1.49700
Zn473      Zn  0.85681329  0.89328489  0.89338110     1.49400
Zn474      Zn  0.89334258  0.85660437  0.89337810     1.49100
Zn475      Zn  0.89339646  0.89321723  0.85675302     1.49500
O476        O  0.87506940  0.87494138  0.87507055    -1.80200
O477        O  0.82515572  0.86226723  0.86239159    -0.70800
O478        O  0.86247673  0.88778404  0.92497389    -0.70700
O479        O  0.88782787  0.82502662  0.88769951    -0.70200
O480        O  0.82520149  0.88771512  0.88786680    -0.70900
O481        O  0.86236584  0.82506924  0.86223952    -0.70500
O482        O  0.88774984  0.86213475  0.92498295    -0.71000
O483        O  0.92494904  0.88767624  0.86238620    -0.70400
O484        O  0.86238986  0.92485413  0.88771249    -0.71200
O485        O  0.92492038  0.86221821  0.88784989    -0.70600
O486        O  0.88781342  0.92480882  0.86221781    -0.71000
O487        O  0.88791166  0.88759742  0.82518273    -0.71000
O488        O  0.86228684  0.86230858  0.82518184    -0.70700
C489        C  0.81524231  0.87500264  0.87513679     0.81000
C490        C  0.87512659  0.87497621  0.93491490     0.81500
C491        C  0.87511602  0.81511402  0.87493635     0.80500
C492        C  0.93486358  0.87495037  0.87513161     0.80900
C493        C  0.87509846  0.93476428  0.87494393     0.82000
C494        C  0.87510077  0.87495433  0.81525133     0.81100
N495        N  0.87483689  0.87530292  0.04255807     0.00400
C496        C  0.86240134  0.86294561  0.05552813     0.03000
C497        C  0.86684057  0.86743622  0.07697678    -0.19900
C498        C  0.88271074  0.88325369  0.07698756    -0.20100
C499        C  0.88722636  0.88768581  0.05554477     0.02900
H500        H  0.85943740  0.86006644  0.09102445     0.16700
H501        H  0.89009658  0.89062568  0.09104327     0.16700
N502        N  0.87479966  0.87491413  0.70764755     0.00400
C503        C  0.86238911  0.88725863  0.69464658     0.03000
C504        C  0.86681362  0.88270274  0.67321078    -0.19900
C505        C  0.88265156  0.86684931  0.67324468    -0.20100
C506        C  0.88715784  0.86246424  0.69469902     0.02900
H507        H  0.85941045  0.89003930  0.65914387     0.16700
H508        H  0.89001071  0.85940936  0.65920980     0.16700
N509        N  0.87484295  0.70749035  0.87486834     0.00400
C510        C  0.86235226  0.69447911  0.88712502     0.03000
C511        C  0.86670698  0.67304740  0.88246639    -0.19900
C512        C  0.88258223  0.67309741  0.86664796    -0.20100
C513        C  0.88718510  0.69455710  0.86238252     0.02900
H514        H  0.85922870  0.65897195  0.88970709     0.16700
H515        H  0.88989260  0.65907062  0.85914560     0.16700
N516        N  0.70759440  0.87498827  0.87486858     0.00400
C517        C  0.69461164  0.88730462  0.86240146     0.03000
C518        C  0.67316714  0.88286612  0.86690623    -0.19900
C519        C  0.67317238  0.86711715  0.88284712    -0.20100
C520        C  0.69462016  0.86266888  0.88733908     0.02900
H521        H  0.65911284  0.89021505  0.85949110     0.16700
H522        H  0.65912142  0.85977976  0.89027668     0.16700
N523        N  0.04246076  0.87497758  0.87477591     0.00400
C524        C  0.05546233  0.88739914  0.88710270     0.03000
C525        C  0.07689797  0.88299560  0.88251660    -0.19900
C526        C  0.07686071  0.86715577  0.86666612    -0.20100
C527        C  0.05540485  0.86262833  0.86231504     0.02900
H528        H  0.09096741  0.89041296  0.88983156     0.16700
H529        H  0.09089212  0.85980806  0.85920935     0.16700
N530        N  0.87519730  0.04238552  0.87490046     0.00400
C531        C  0.86281022  0.05534779  0.86248690     0.03000
C532        C  0.86735092  0.07679834  0.86685992    -0.19900
C533        C  0.88323223  0.07681692  0.88266752    -0.20100
C534        C  0.88765112  0.05537690  0.88721146     0.02900
H535        H  0.85999000  0.09084193  0.85943672     0.16700
H536        H  0.89066890  0.09087674  0.88998101     0.16700
Zn537      Zn  0.64337205  0.10691786  0.60652534     1.49700
Zn538      Zn  0.60670174  0.10688198  0.64317519     1.49400
Zn539      Zn  0.64339225  0.14347334  0.64319575     1.49100
Zn540      Zn  0.60670690  0.14352744  0.60658335     1.49500
O541        O  0.62503805  0.12520135  0.62487079    -1.80200
O542        O  0.63783660  0.07531345  0.61213746    -0.70800
O543        O  0.61231303  0.11243813  0.67479098    -0.70700
O544        O  0.67497894  0.13786513  0.63760683    -0.70200
O545        O  0.61236761  0.07528894  0.63759431    -0.70900
O546        O  0.67498207  0.11250249  0.61205534    -0.70500
O547        O  0.63783947  0.13783373  0.67481076    -0.71000
O548        O  0.61238915  0.17513149  0.61216067    -0.70400
O549        O  0.57506106  0.11240217  0.63756033    -0.71200
O550        O  0.63789380  0.17509210  0.63758395    -0.70600
O551        O  0.57506746  0.13792333  0.61215986    -0.71000
O552        O  0.61229012  0.13794491  0.57496823    -0.71000
O553        O  0.63777023  0.11249933  0.57493229    -0.70700
C554        C  0.62512474  0.06536372  0.62487745     0.81000
C555        C  0.62509721  0.12510630  0.68474153     0.81500
C556        C  0.68491787  0.12518425  0.62483163     0.80500
C557        C  0.62517719  0.18505052  0.62485180     0.80900
C558        C  0.56511830  0.12514382  0.62483819     0.82000
C559        C  0.62502466  0.12522893  0.56501253     0.81100
N560        N  0.62503589  0.95769195  0.62475976     0.00400
C561        C  0.61260329  0.94470126  0.61241564     0.03000
C562        C  0.61709238  0.92325806  0.61687898    -0.19900
C563        C  0.63298034  0.92326390  0.63267493    -0.20100
C564        C  0.63745774  0.94471100  0.63712536     0.02900
H565        H  0.60967407  0.90920235  0.60953939     0.16700
H566        H  0.64036364  0.90921464  0.64006380     0.16700
N567        N  0.62507281  0.12499098  0.45735899     0.00400
C568        C  0.61269359  0.11259834  0.44436526     0.03000
C569        C  0.61722862  0.11703879  0.42292470    -0.19900
C570        C  0.63309732  0.13285914  0.42294519    -0.20100
C571        C  0.63751808  0.13734658  0.44439648     0.02900
H572        H  0.60987428  0.10964970  0.40886097     0.16700
H573        H  0.64052787  0.14021394  0.40890447     0.16700
N574        N  0.62517933  0.12518293  0.79242732     0.00400
C575        C  0.63757882  0.11279089  0.80540757     0.03000
C576        C  0.63321834  0.11735753  0.82685405    -0.19900
C577        C  0.61743267  0.13325897  0.82686169    -0.20100
C578        C  0.61288334  0.13767057  0.80541932     0.02900
H579        H  0.64063138  0.10999573  0.84090238     0.16700
H580        H  0.61012786  0.14070947  0.84091923     0.16700
N581        N  0.45741277  0.12489349  0.62485406     0.00400
C582        C  0.44438809  0.11235876  0.61264987     0.03000
C583        C  0.42295616  0.11682207  0.61720157    -0.19900
C584        C  0.42300953  0.13280361  0.63290769    -0.20100
C585        C  0.44447180  0.13736128  0.63721812     0.02900
H586        H  0.40887859  0.10933765  0.60997069     0.16700
H587        H  0.40898186  0.14019590  0.64032806     0.16700
N588        N  0.79256141  0.12542172  0.62531020     0.00400
C589        C  0.80555088  0.13776659  0.61288349     0.03000
C590        C  0.82699284  0.13330566  0.61738424    -0.19900
C591        C  0.82697850  0.11751094  0.63327922    -0.20100
C592        C  0.80552856  0.11306065  0.63774769     0.02900
H593        H  0.84105183  0.14063398  0.60996095     0.16700
H594        H  0.84102386  0.11011342  0.64066222     0.16700
N595        N  0.62527754  0.29271928  0.62518073     0.00400
C596        C  0.63774442  0.30571222  0.61287729     0.03000
C597        C  0.63343627  0.32715255  0.61753238    -0.19900
C598        C  0.61761097  0.32713529  0.63339716    -0.20100
C599        C  0.61298839  0.30568511  0.63769757     0.02900
H600        H  0.64091112  0.34121187  0.61025732     0.16700
H601        H  0.61033783  0.34118018  0.64090296     0.16700
Zn602      Zn  0.73162907  0.01842092  0.73154318     1.49700
Zn603      Zn  0.74390549  0.00614090  0.78057084     1.49400
Zn604      Zn  0.74382999  0.96945053  0.74374509     1.49100
Zn605      Zn  0.78063088  0.00619953  0.74383520     1.49500
O606        O  0.75000184  0.00005529  0.74992544    -1.80200
O607        O  0.71242201  0.03771996  0.74967466    -0.70800
O608        O  0.73333848  0.97931257  0.79604944    -0.70700
O609        O  0.72076265  0.96639219  0.72072238    -0.70200
O610        O  0.72087191  0.02918766  0.78363122    -0.70900
O611        O  0.71226413  0.00035984  0.71231681    -0.70500
O612        O  0.73330235  0.95390615  0.77052752    -0.71000
O613        O  0.79613208  0.97936870  0.73333983    -0.70400
O614        O  0.77071162  0.01666948  0.79612635    -0.71200
O615        O  0.77062192  0.95394659  0.73320396    -0.70600
O616        O  0.79615226  0.01676904  0.77064378    -0.71000
O617        O  0.78369357  0.02922638  0.72077126    -0.71000
O618        O  0.74973454  0.03765415  0.71223271    -0.70700
C619        C  0.71000140  0.04010391  0.76997591     0.81000
C620        C  0.73001510  0.95994290  0.78992737     0.81500
C621        C  0.70984284  0.98006594  0.70988141     0.80500
C622        C  0.79002707  0.96000044  0.72998291     0.80900
C623        C  0.79008762  0.02002117  0.79004280     0.82000
C624        C  0.77003460  0.04009043  0.70985210     0.81100
Zn625      Zn  0.74381624  0.28063164  0.50607870     1.49700
Zn626      Zn  0.73161192  0.23165505  0.51835474     1.49400
Zn627      Zn  0.74384817  0.24386396  0.46931286     1.49100
Zn628      Zn  0.78060119  0.24389106  0.50607032     1.49500
O629        O  0.74997209  0.25001138  0.49994505    -1.80200
O630        O  0.72085645  0.28369287  0.52919960    -0.70800
O631        O  0.71233780  0.21238149  0.50028184    -0.70700
O632        O  0.73316929  0.27065657  0.45380694    -0.70200
O633        O  0.71234722  0.24974179  0.53765635    -0.70900
O634        O  0.73308988  0.29608526  0.47931050    -0.70500
O635        O  0.72084892  0.22078284  0.46631146    -0.71000
O636        O  0.79611044  0.23324858  0.47927684    -0.70400
O637        O  0.74970920  0.21236964  0.53761523    -0.71200
O638        O  0.77066970  0.23329118  0.45378761    -0.70600
O639        O  0.78366011  0.22088729  0.52915625    -0.71000
O640        O  0.79611093  0.27073139  0.51658251    -0.71000
O641        O  0.77064282  0.29619830  0.51653671    -0.70700
C642        C  0.70996439  0.27004116  0.54009184     0.81000
C643        C  0.70995153  0.20992345  0.47998687     0.81500
C644        C  0.72976688  0.29001748  0.45992499     0.80500
C645        C  0.79004453  0.22993858  0.45988629     0.80900
C646        C  0.77000906  0.20998082  0.54003751     0.82000
C647        C  0.79002984  0.29012411  0.51986118     0.81100
Zn648      Zn  0.39327550  0.85651001  0.35656563     1.49700
Zn649      Zn  0.35660730  0.89320024  0.35655820     1.49400
Zn650      Zn  0.35659558  0.85651902  0.39313742     1.49100
Zn651      Zn  0.39324344  0.89314684  0.39315454     1.49500
O652        O  0.37492379  0.87484007  0.37484565    -1.80200
O653        O  0.38767300  0.86211296  0.32497679    -0.70800
O654        O  0.32498219  0.88763082  0.36212709    -0.70700
O655        O  0.36225870  0.82490755  0.38761438    -0.70200
O656        O  0.36224206  0.88761858  0.32495533    -0.70900
O657        O  0.38772169  0.82489144  0.36215545    -0.70500
O658        O  0.32498516  0.86206908  0.38748844    -0.71000
O659        O  0.38760565  0.88760488  0.42472606    -0.70400
O660        O  0.36220199  0.92481033  0.36217051    -0.71200
O661        O  0.36211264  0.86217676  0.42474988    -0.70600
O662        O  0.38772379  0.92477094  0.38756636    -0.71000
O663        O  0.42484967  0.88751415  0.38765110    -0.71000
O664        O  0.42489515  0.86209669  0.36215169    -0.70700
C665        C  0.37496609  0.87486435  0.31503096     0.81000
C666        C  0.31504324  0.87485111  0.37480921     0.81500
C667        C  0.37500342  0.81495960  0.37490335     0.80500
C668        C  0.37484961  0.87491397  0.43467296     0.80900
C669        C  0.37497426  0.93473280  0.37487121     0.82000
C670        C  0.43481323  0.87480778  0.37491766     0.81100
N671        N  0.20737307  0.87522029  0.37503458     0.00400
C672        C  0.19436078  0.86279588  0.38736217     0.03000
C673        C  0.17292539  0.86731272  0.38287325    -0.19900
C674        C  0.17296893  0.88321789  0.36708676    -0.20100
C675        C  0.19442767  0.88767823  0.36266682     0.02900
H676        H  0.15885171  0.85991627  0.39019972     0.16700
H677        H  0.15893713  0.89063028  0.35969253     0.16700
N678        N  0.54248790  0.87499128  0.37500844     0.00400
C679        C  0.55550818  0.88730261  0.38744012     0.03000
C680        C  0.57694093  0.88272887  0.38300610    -0.19900
C681        C  0.57689202  0.86690427  0.36714389    -0.20100
C682        C  0.55543290  0.86254878  0.36262678     0.02900
H683        H  0.59101673  0.89002830  0.39042655     0.16700
H684        H  0.59092082  0.85945155  0.35978595     0.16700
N685        N  0.37497885  0.87500467  0.54231330     0.00400
C686        C  0.36247805  0.86264892  0.55522273     0.03000
C687        C  0.36679929  0.86715273  0.57669160    -0.19900
C688        C  0.38266490  0.88297483  0.57678010    -0.20100
C689        C  0.38729683  0.88739938  0.55535954     0.02900
H690        H  0.35930808  0.85980144  0.59070163     0.16700
H691        H  0.38995362  0.89037288  0.59087311     0.16700
N692        N  0.37508767  0.70729210  0.37512253     0.00400
C693        C  0.36276599  0.69428100  0.38755406     0.03000
C694        C  0.36743312  0.67284695  0.38322353    -0.19900
C695        C  0.38332003  0.67288792  0.36742041    -0.20100
C696        C  0.38761866  0.69434500  0.36283240     0.02900
H697        H  0.36014481  0.65877560  0.39066329     0.16700
H698        H  0.39083233  0.65885521  0.36013141     0.16700
N699        N  0.37503218  0.87481399  0.20737655     0.00400
C700        C  0.38740484  0.86245521  0.19434496     0.03000
C701        C  0.38300352  0.86708307  0.17291820    -0.19900
C702        C  0.36722560  0.88299542  0.17298551    -0.20100
C703        C  0.36272566  0.88734638  0.19444889     0.02900
H704        H  0.39041020  0.85978263  0.15883533     0.16700
H705        H  0.35991673  0.89051306  0.15896567     0.16700
N706        N  0.37487534  0.04242152  0.37485461     0.00400
C707        C  0.38732135  0.05539758  0.38719965     0.03000
C708        C  0.38289013  0.07684685  0.38270586    -0.19900
C709        C  0.36701598  0.07686076  0.36689587    -0.20100
C710        C  0.36248776  0.05541902  0.36246800     0.02900
H711        H  0.39032652  0.09089303  0.39004463     0.16700
H712        H  0.35966366  0.09091971  0.35949385     0.16700
Zn713      Zn  0.24382335  0.96929334  0.24356726     1.49700
Zn714      Zn  0.23162181  0.01833203  0.23135138     1.49400
Zn715      Zn  0.24393867  0.00600407  0.28033479     1.49100
Zn716      Zn  0.28063207  0.00604814  0.24362888     1.49500
O717        O  0.25000030  0.99991283  0.24970216    -1.80200
O718        O  0.22070860  0.96629919  0.22059628    -0.70800
O719        O  0.21243843  0.03764069  0.24951515    -0.70700
O720        O  0.23341422  0.97921182  0.29585752    -0.70200
O721        O  0.21222737  0.00026094  0.21211648    -0.70900
O722        O  0.23326504  0.95375576  0.27038869    -0.70500
O723        O  0.22090940  0.02900779  0.28343580    -0.71000
O724        O  0.29615578  0.01669216  0.27040313    -0.70400
O725        O  0.24975148  0.03762904  0.21210895    -0.71200
O726        O  0.27069332  0.01664602  0.29585610    -0.70600
O727        O  0.28369423  0.02909255  0.22060792    -0.71000
O728        O  0.29613753  0.97921933  0.23313282    -0.71000
O729        O  0.27063896  0.95378165  0.23296656    -0.70700
C730        C  0.20978437  0.97995698  0.20973905     0.81000
C731        C  0.21004565  0.03997776  0.26982536     0.81500
C732        C  0.23002437  0.95984152  0.28978585     0.80500
C733        C  0.29006317  0.02002111  0.28977861     0.80900
C734        C  0.27005848  0.04003124  0.20973850     0.82000
C735        C  0.29004803  0.95984908  0.22975481     0.81100
Zn736      Zn  0.14357525  0.10641213  0.14325706     1.49700
Zn737      Zn  0.10686957  0.10638091  0.10670980     1.49400
Zn738      Zn  0.10692693  0.14311075  0.14330391     1.49100
Zn739      Zn  0.14353256  0.14306359  0.10665606     1.49500
O740        O  0.12521391  0.12474120  0.12498177    -1.80200
O741        O  0.13798966  0.07478680  0.13770652    -0.70800
O742        O  0.07525719  0.11198882  0.11234399    -0.70700
O743        O  0.11255249  0.13748391  0.17491842    -0.70200
O744        O  0.11246718  0.07475039  0.11231060    -0.70900
O745        O  0.13801853  0.11201626  0.17487488    -0.70500
O746        O  0.07529298  0.13752101  0.13773968    -0.71000
O747        O  0.13799538  0.17470301  0.11222083    -0.70400
O748        O  0.11246667  0.11195970  0.07508281    -0.71200
O749        O  0.11253970  0.17475422  0.13768503    -0.70600
O750        O  0.13790251  0.13745113  0.07508191    -0.71000
O751        O  0.17515932  0.13743837  0.11215130    -0.71000
O752        O  0.17518929  0.11197209  0.13760388    -0.70700
C753        C  0.12523629  0.06482464  0.12501805     0.81000
C754        C  0.06533406  0.12476021  0.12505096     0.81500
C755        C  0.12529287  0.12473886  0.18483697     0.80500
C756        C  0.12527803  0.18467578  0.12494142     0.80900
C757        C  0.12519716  0.12469704  0.06514586     0.82000
C758        C  0.18511695  0.12469356  0.12485503     0.81100
N759        N  0.12532574  0.12475074  0.95748587     0.00400
C760        C  0.11277770  0.11245980  0.94455923     0.03000
C761        C  0.11711695  0.11696965  0.92309560    -0.19900
C762        C  0.13302083  0.13275159  0.92302545    -0.20100
C763        C  0.13765728  0.13714715  0.94445135     0.02900
H764        H  0.10955801  0.10970298  0.90907709     0.16700
H765        H  0.14027608  0.14019866  0.90894189     0.23900
N766        N  0.12532536  0.95713362  0.12461712     0.00400
C767        C  0.13769394  0.94406761  0.13694565     0.03000
C768        C  0.13326825  0.92265065  0.13228939    -0.19900
C769        C  0.11746296  0.92276112  0.11640493    -0.20100
C770        C  0.11297098  0.94423816  0.11209862     0.02900
H771        H  0.14062157  0.90854748  0.13960509     0.16700
H772        H  0.11008448  0.90875990  0.10892228     0.16700
N773        N  0.95765402  0.12512041  0.12476814     0.00400
C774        C  0.94471095  0.13753309  0.13718446     0.03000
C775        C  0.92325090  0.13312275  0.13271785    -0.19900
C776        C  0.92320348  0.11729477  0.11685501    -0.20100
C777        C  0.94463747  0.11277173  0.11236691     0.02900
H778        H  0.90922076  0.14052144  0.14012738     0.16700
H779        H  0.90912740  0.10994217  0.10948778     0.16700
N780        N  0.12520458  0.12483166  0.29252383     0.00400
C781        C  0.11282366  0.13729260  0.30545923     0.03000
C782        C  0.11730320  0.13290121  0.32692197    -0.19900
C783        C  0.13313741  0.11704508  0.32698384    -0.20100
C784        C  0.13759713  0.11248548  0.30555550     0.02900
H785        H  0.10994167  0.14035548  0.34094744     0.16700
H786        H  0.14053092  0.10972544  0.34106391     0.16700
N787        N  0.12512647  0.29239618  0.12480881     0.00400
C788        C  0.11269968  0.30533123  0.13722344     0.03000
C789        C  0.11706579  0.32679686  0.13273895    -0.19900
C790        C  0.13288007  0.32686491  0.11686819    -0.20100
C791        C  0.13743869  0.30543689  0.11239458     0.02900
H792        H  0.10963554  0.34081854  0.14013391     0.16700
H793        H  0.14019227  0.34094953  0.10947710     0.16700
N794        N  0.29280390  0.12475971  0.12477223     0.00400
C795        C  0.30581019  0.11235228  0.13712505     0.03000
C796        C  0.32724755  0.11667451  0.13247164    -0.19900
C797        C  0.32721590  0.13245667  0.11656516    -0.20100
C798        C  0.30576120  0.13703871  0.11224351     0.02900
H799        H  0.34131366  0.10925324  0.13979096     0.16700
H800        H  0.34125352  0.13975333  0.10907154     0.16700
Zn801      Zn  0.89329497  0.35685269  0.39333088     1.49700
Zn802      Zn  0.85666334  0.35685412  0.35670203     1.49400
Zn803      Zn  0.85670096  0.39354525  0.39336604     1.49100
Zn804      Zn  0.89323315  0.39350388  0.35661933     1.49500
O805        O  0.87497652  0.37519199  0.37501436    -1.80200
O806        O  0.88778024  0.32522883  0.38766149    -0.70800
O807        O  0.82507341  0.36251285  0.36229037    -0.70700
O808        O  0.86230636  0.38795259  0.42499496    -0.70200
O809        O  0.86226553  0.32523328  0.36225799    -0.70900
O810        O  0.88768170  0.36239826  0.42498642    -0.70500
O811        O  0.82508269  0.38795637  0.38777699    -0.71000
O812        O  0.88754265  0.42514608  0.36208291    -0.70400
O813        O  0.86223434  0.36234382  0.32507138    -0.71200
O814        O  0.86224244  0.42516744  0.38770534    -0.70600
O815        O  0.88769041  0.38779709  0.32501931    -0.71000
O816        O  0.92485782  0.38792093  0.36219451    -0.71000
O817        O  0.92489299  0.36245426  0.38766028    -0.70700
C818        C  0.87505579  0.31528797  0.37492569     0.81000
C819        C  0.81514000  0.37524831  0.37502321     0.81500
C820        C  0.87498265  0.37516287  0.43493615     0.80500
C821        C  0.87485885  0.43510091  0.37485489     0.80900
C822        C  0.87497796  0.37503435  0.31510320     0.82000
C823        C  0.93481459  0.37516854  0.37489647     0.81100
N824        N  0.87508622  0.37507760  0.20742846     0.00400
C825        C  0.86257210  0.38735541  0.19445389     0.03000
C826        C  0.86695256  0.38280245  0.17300544    -0.19900
C827        C  0.88286818  0.36702608  0.17299939    -0.20100
C828        C  0.88746741  0.36267921  0.19444386     0.02900
H829        H  0.85945436  0.39007481  0.15895624     0.16700
H830        H  0.89019119  0.35958659  0.15894603     0.16700
N831        N  0.87509991  0.20759484  0.37488009     0.00400
C832        C  0.86266005  0.19466094  0.38727908     0.03000
C833        C  0.86709262  0.17319626  0.38285448    -0.19900
C834        C  0.88296064  0.17312884  0.36703797    -0.20100
C835        C  0.88748397  0.19455580  0.36253657     0.02900
H836        H  0.85967361  0.15917375  0.39025653     0.16700
H837        H  0.89032712  0.15904587  0.35969669     0.16700
N838        N  0.04250017  0.37489173  0.37496032     0.00400
C839        C  0.05549549  0.36248268  0.36259768     0.03000
C840        C  0.07693777  0.36699514  0.36703396    -0.19900
C841        C  0.07692511  0.38288874  0.38282543    -0.20100
C842        C  0.05547541  0.38734595  0.38729964     0.02900
H843        H  0.09099442  0.35962877  0.35964232     0.16700
H844        H  0.09097357  0.39032676  0.39015960     0.16700
N845        N  0.87486266  0.37509659  0.54264076     0.00400
C846        C  0.86249019  0.36265317  0.55559631     0.03000
C847        C  0.86696564  0.36707254  0.57705246    -0.19900
C848        C  0.88279548  0.38293214  0.57708620    -0.20100
C849        C  0.88725665  0.38746644  0.55564860     0.02900
H850        H  0.85960354  0.35964011  0.59108866     0.16700
H851        H  0.89018353  0.39027417  0.59115596     0.16700
N852        N  0.87493447  0.54280150  0.37509651     0.00400
C853        C  0.86255168  0.55580976  0.36271778     0.03000
C854        C  0.86703541  0.57724799  0.36721416    -0.19900
C855        C  0.88287705  0.57721627  0.38306120    -0.20100
C856        C  0.88733583  0.55576081  0.38750970     0.02900
H857        H  0.85966111  0.59131516  0.35984990     0.16700
H858        H  0.89026599  0.59125563  0.39046186     0.16700
N859        N  0.70745984  0.37510760  0.37503038     0.00400
C860        C  0.69446833  0.38755905  0.36270247     0.03000
C861        C  0.67302601  0.38321547  0.36730549    -0.19900
C862        C  0.67303295  0.36739639  0.38317104    -0.20100
C863        C  0.69447929  0.36281090  0.38752315     0.02900
H864        H  0.65897088  0.39069030  0.36001890     0.16700
H865        H  0.65898343  0.36012045  0.39066326     0.16700
Zn866      Zn  0.99391509  0.25621232  0.21934007     1.49700
Zn867      Zn  0.98166825  0.26833548  0.26833105     1.49400
Zn868      Zn  0.99405465  0.21936537  0.25609763     1.49100
Zn869      Zn  0.03073061  0.25612701  0.25607001     1.49500
O870        O  0.00009397  0.25000967  0.24995231    -1.80200
O871        O  0.97081720  0.27922370  0.21632349    -0.70800
O872        O  0.96244018  0.25020195  0.28759801    -0.70700
O873        O  0.98361698  0.20385325  0.22923101    -0.70200
O874        O  0.96233265  0.28761543  0.25029641    -0.70900
O875        O  0.98339617  0.22938105  0.20381975    -0.70500
O876        O  0.97093504  0.21626319  0.27905635    -0.71000
O877        O  0.04629838  0.22936400  0.26678150    -0.70400
O878        O  0.99975142  0.28761709  0.28758137    -0.71200
O879        O  0.02085850  0.20388628  0.26681874    -0.70600
O880        O  0.03372238  0.27925066  0.27901744    -0.71000
O881        O  0.04623976  0.26663545  0.22922996    -0.71000
O882        O  0.02071724  0.26684305  0.20382054    -0.70700
C883        C  0.95991237  0.29006961  0.23000521     0.81000
C884        C  0.96003772  0.22989880  0.28996804     0.81500
C885        C  0.98021598  0.20996060  0.20986679     0.80500
C886        C  0.04023447  0.20998332  0.27015876     0.80900
C887        C  0.02004846  0.29009599  0.28993282     0.82000
C888        C  0.04013160  0.27005232  0.20987086     0.81100
C889        C  0.02776916  0.30561795  0.30543037    -0.14600
C890        C  0.03421386  0.31862119  0.31849069     0.09500
C891        C  0.04171245  0.33384098  0.33383133     0.11300
C892        C  0.04804472  0.34685381  0.34693337    -0.15400
C893        C  0.94454003  0.22213500  0.30547541    -0.14600
C894        C  0.93152365  0.21569690  0.31852946     0.09500
C895        C  0.91624737  0.20823715  0.33383754     0.11300
C896        C  0.90317216  0.20195040  0.34690183    -0.15400
C897        C  0.90314248  0.34706254  0.20191772    -0.14600
C898        C  0.91617538  0.33399678  0.20829920     0.09500
C899        C  0.93139990  0.31867171  0.21584618     0.11300
C900        C  0.94439664  0.30560036  0.22230223    -0.15400
C901        C  0.87490863  0.52007776  0.37503740    -0.14600
C902        C  0.87484757  0.50059323  0.37493439     0.09500
C903        C  0.87479176  0.47778215  0.37481867     0.11300
C904        C  0.87479864  0.45829440  0.37478916    -0.15400
C905        C  0.87494264  0.37513308  0.45813198    -0.14600
C906        C  0.87488918  0.37513341  0.47762044     0.09500
C907        C  0.87485357  0.37514396  0.50043261     0.11300
C908        C  0.87485581  0.37513602  0.51991747    -0.15400
C909        C  0.87514085  0.29209802  0.37483754    -0.14600
C910        C  0.87519502  0.27261198  0.37478485     0.09500
C911        C  0.87520056  0.24980245  0.37478421     0.11300
C912        C  0.87515785  0.23031828  0.37482709    -0.15400
C913        C  0.87501234  0.37496210  0.29191747    -0.14600
C914        C  0.87505307  0.37496388  0.27243422     0.09500
C915        C  0.87509276  0.37502464  0.24962958     0.11300
C916        C  0.87510228  0.37507219  0.23014869    -0.15400
C917        C  0.79195474  0.37526428  0.37499710    -0.14600
C918        C  0.77247108  0.37521140  0.37495997     0.09500
C919        C  0.74966477  0.37511857  0.37494522     0.11300
C920        C  0.73018203  0.37507890  0.37497455    -0.15400
C921        C  0.95800200  0.37510710  0.37481806    -0.14600
C922        C  0.97748667  0.37502561  0.37479767     0.09500
C923        C  0.00029425  0.37494567  0.37484204     0.11300
C924        C  0.01977740  0.37491238  0.37490657    -0.15400
C925        C  0.05566479  0.27773801  0.19434354    -0.14600
C926        C  0.06873410  0.28411462  0.18130272     0.09500
C927        C  0.08405116  0.29152303  0.16599595     0.11300
C928        C  0.09710472  0.29781898  0.15290631    -0.15400
C929        C  0.09719831  0.15296366  0.29795344    -0.14600
C930        C  0.08413515  0.16606757  0.29168452     0.09500
C931        C  0.06882472  0.18141234  0.28430497     0.11300
C932        C  0.05576980  0.19447520  0.27791916    -0.15400
C933        C  0.95222782  0.15312101  0.15287634    -0.14600
C934        C  0.95859785  0.16613847  0.16596738     0.09500
C935        C  0.96611254  0.18139772  0.18128115     0.11300
C936        C  0.97254361  0.19442993  0.19433212    -0.15400
C937        C  0.12529958  0.20787429  0.12490146    -0.14600
C938        C  0.12531059  0.22736496  0.12484936     0.09500
C939        C  0.12528611  0.25018127  0.12480757     0.11300
C940        C  0.12522344  0.26966913  0.12480252    -0.15400
C941        C  0.12526638  0.04163341  0.12503318    -0.14600
C942        C  0.12529878  0.02214715  0.12501303     0.09500
C943        C  0.12531627  0.99933841  0.12492574     0.11300
C944        C  0.12531301  0.97985550  0.12479574    -0.15400
C945        C  0.04214572  0.12479382  0.12504455    -0.14600
C946        C  0.02266133  0.12484619  0.12498107     0.09500
C947        C  0.99985552  0.12493161  0.12487796     0.11300
C948        C  0.98037412  0.12501646  0.12481013    -0.15400
C949        C  0.12530360  0.12470323  0.20802560    -0.14600
C950        C  0.12529699  0.12468076  0.22751075     0.09500
C951        C  0.12526752  0.12469706  0.25031884     0.11300
C952        C  0.12523181  0.12475380  0.26980188    -0.15400
C953        C  0.12525852  0.12467113  0.04196501    -0.14600
C954        C  0.12536523  0.12468505  0.02248453     0.09500
C955        C  0.12544861  0.12471803  0.99968338     0.11300
C956        C  0.12542496  0.12474080  0.98020413    -0.15400
C957        C  0.20830594  0.12468926  0.12482691    -0.14600
C958        C  0.22779118  0.12471914  0.12484283     0.09500
C959        C  0.25059891  0.12477115  0.12486954     0.11300
C960        C  0.27008176  0.12479189  0.12485127    -0.15400
C961        C  0.15319575  0.95145288  0.15277539    -0.14600
C962        C  0.16610012  0.95787804  0.16594599     0.09500
C963        C  0.18123531  0.96558440  0.18128051     0.11300
C964        C  0.19421979  0.97218613  0.19429060    -0.15400
C965        C  0.15326593  0.09682983  0.29814573    -0.14600
C966        C  0.16632966  0.08378157  0.29179158     0.09500
C967        C  0.18159111  0.06851832  0.28419891     0.11300
C968        C  0.19458458  0.05549527  0.27764618    -0.15400
C969        C  0.29836484  0.09685197  0.15292498    -0.14600
C970        C  0.29197961  0.08389478  0.16606084     0.09500
C971        C  0.28437775  0.06865798  0.18134188     0.11300
C972        C  0.27784400  0.05560239  0.19431146    -0.15400
C973        C  0.34683514  0.04798364  0.34681414    -0.14600
C974        C  0.33378700  0.04170654  0.33371567     0.09500
C975        C  0.31853829  0.03425944  0.31836932     0.11300
C976        C  0.30554460  0.02780756  0.30529642    -0.15400
C977        C  0.34713025  0.90301733  0.20197869    -0.14600
C978        C  0.33406310  0.91607039  0.20831724     0.09500
C979        C  0.31870999  0.93132319  0.21575025     0.11300
C980        C  0.30560383  0.94433114  0.22211141    -0.15400
C981        C  0.20194051  0.90330305  0.34701369    -0.14600
C982        C  0.20830996  0.91628644  0.33389108     0.09500
C983        C  0.21583666  0.93143593  0.31847907     0.11300
C984        C  0.22229792  0.94436476  0.30534311    -0.15400
C985        C  0.45799800  0.87484245  0.37494359    -0.14600
C986        C  0.47748091  0.87492968  0.37497327     0.09500
C987        C  0.50028559  0.87502824  0.37500151     0.11300
C988        C  0.51976708  0.87504642  0.37501086    -0.15400
C989        C  0.37506588  0.87503589  0.51959791    -0.14600
C990        C  0.37506241  0.87505122  0.50012153     0.09500
C991        C  0.37495681  0.87501872  0.47732542     0.11300
C992        C  0.37486199  0.87496174  0.45784819    -0.15400
C993        C  0.29185833  0.87487976  0.37484314    -0.14600
C994        C  0.27237577  0.87494426  0.37490870     0.09500
C995        C  0.24957243  0.87504826  0.37498373     0.11300
C996        C  0.23009224  0.87513669  0.37501876    -0.15400
C997        C  0.37502204  0.79177599  0.37494354    -0.14600
C998        C  0.37499962  0.77229387  0.37498451     0.09500
C999        C  0.37496558  0.74949104  0.37502962     0.11300
C1000       C  0.37498569  0.73001096  0.37506770    -0.15400
C1001       C  0.37499646  0.95792093  0.37487543    -0.14600
C1002       C  0.37497531  0.97740612  0.37486342     0.09500
C1003       C  0.37491843  0.00021447  0.37484788     0.11300
C1004       C  0.37488083  0.01969820  0.37484579    -0.15400
C1005       C  0.37503749  0.87473427  0.23009417    -0.14600
C1006       C  0.37503330  0.87472324  0.24957253     0.09500
C1007       C  0.37500954  0.87478351  0.27237225     0.11300
C1008       C  0.37498258  0.87484326  0.29185190    -0.15400
C1009       C  0.80557768  0.22221631  0.44437511    -0.14600
C1010       C  0.81863555  0.21583224  0.43132506     0.09500
C1011       C  0.83394774  0.20844411  0.41600211     0.11300
C1012       C  0.84701848  0.20216905  0.40291843    -0.15400
C1013       C  0.80554364  0.30564937  0.52758458    -0.14600
C1014       C  0.81856853  0.31867070  0.53408799     0.09500
C1015       C  0.83383395  0.33393634  0.54168386     0.11300
C1016       C  0.84686896  0.34699097  0.54809000    -0.15400
C1017       C  0.72197916  0.30554632  0.44444897    -0.14600
C1018       C  0.71556333  0.31865591  0.43146991     0.09500
C1019       C  0.70817328  0.33404515  0.41623022     0.11300
C1020       C  0.70192751  0.34715970  0.40317864    -0.15400
C1021       C  0.65330883  0.29824818  0.59714148    -0.14600
C1022       C  0.66628778  0.29186082  0.58402360     0.09500
C1023       C  0.68149375  0.28428552  0.56869224     0.11300
C1024       C  0.69448333  0.27779163  0.55563258    -0.15400
C1025       C  0.79808873  0.15330105  0.59712020    -0.14600
C1026       C  0.79173490  0.16626934  0.58397674     0.09500
C1027       C  0.78421534  0.18147804  0.56862253     0.11300
C1028       C  0.77775602  0.19447963  0.55555853    -0.15400
C1029       C  0.79804365  0.09735237  0.65332470    -0.14600
C1030       C  0.79169859  0.08419542  0.66628201     0.09500
C1031       C  0.78420732  0.06877176  0.68143253     0.11300
C1032       C  0.77777025  0.05564301  0.69437835    -0.15400
C1033       C  0.65314144  0.09705620  0.79794278    -0.14600
C1034       C  0.66615961  0.08394492  0.79162468     0.09500
C1035       C  0.68143735  0.06863748  0.78415248     0.11300
C1036       C  0.69448413  0.05560768  0.77771783    -0.15400
C1037       C  0.65316320  0.15297968  0.45189438    -0.14600
C1038       C  0.66620380  0.16603304  0.45827805     0.09500
C1039       C  0.68145523  0.18132858  0.46581754     0.11300
C1040       C  0.69446206  0.19438434  0.47227174    -0.15400
C1041       C  0.65306158  0.95217615  0.65281426    -0.14600
C1042       C  0.66606177  0.95849031  0.66594267     0.09500
C1043       C  0.68128688  0.96594546  0.68130939     0.11300
C1044       C  0.69430410  0.97235660  0.69437992    -0.15400
C1045       C  0.48013692  0.12492164  0.62475426    -0.14600
C1046       C  0.49962214  0.12496141  0.62471076     0.09500
C1047       C  0.52243449  0.12502678  0.62472733     0.11300
C1048       C  0.54192295  0.12508755  0.62477535    -0.15400
C1049       C  0.62502256  0.12503663  0.48007590    -0.14600
C1050       C  0.62500735  0.12510490  0.49955381     0.09500
C1051       C  0.62500574  0.12518956  0.52235315     0.11300
C1052       C  0.62500844  0.12523298  0.54183290    -0.15400
C1053       C  0.62516336  0.04218118  0.62489056    -0.14600
C1054       C  0.62515326  0.02269887  0.62486677     0.09500
C1055       C  0.62509576  0.99989469  0.62480799     0.11300
C1056       C  0.62504647  0.98041318  0.62476715    -0.15400
C1057       C  0.62524539  0.20823437  0.62481962    -0.14600
C1058       C  0.62525693  0.22771683  0.62484250     0.09500
C1059       C  0.62522169  0.25052012  0.62493504     0.11300
C1060       C  0.62520982  0.27000029  0.62504970    -0.15400
C1061       C  0.70809455  0.12518038  0.62485532    -0.14600
C1062       C  0.72757257  0.12521495  0.62494757     0.09500
C1063       C  0.75036912  0.12528593  0.62509596     0.11300
C1064       C  0.76984554  0.12535166  0.62521071    -0.15400
C1065       C  0.62514527  0.12503415  0.70792900    -0.14600
C1066       C  0.62515673  0.12500153  0.72741377     0.09500
C1067       C  0.62513497  0.12503464  0.75022171     0.11300
C1068       C  0.62512753  0.12510735  0.76970497    -0.15400
C1069       C  0.84711134  0.04785704  0.84690309    -0.14600
C1070       C  0.83401093  0.04152455  0.83388213     0.09500
C1071       C  0.81868164  0.03407456  0.81861429     0.11300
C1072       C  0.80561871  0.02768847  0.80557555    -0.15400
C1073       C  0.70207813  0.90289776  0.84670048    -0.14600
C1074       C  0.70841592  0.91595590  0.83364074     0.09500
C1075       C  0.71590288  0.93128959  0.81839916     0.11300
C1076       C  0.72232478  0.94438196  0.80541095    -0.15400
C1077       C  0.84678725  0.90294893  0.70209596    -0.14600
C1078       C  0.83377786  0.91604662  0.70844404     0.09500
C1079       C  0.81854849  0.93138264  0.71593057     0.11300
C1080       C  0.80554095  0.94446051  0.72233171    -0.15400
C1081       C  0.73031104  0.87503349  0.87491221    -0.14600
C1082       C  0.74978848  0.87506607  0.87497730     0.09500
C1083       C  0.77258648  0.87507154  0.87507110     0.11300
C1084       C  0.79206518  0.87504618  0.87513009    -0.15400
C1085       C  0.87513244  0.79194303  0.87489332    -0.14600
C1086       C  0.87509748  0.77246804  0.87492494     0.09500
C1087       C  0.87500616  0.74967633  0.87498795     0.11300
C1088       C  0.87491957  0.73020278  0.87498186    -0.15400
C1089       C  0.95802528  0.87493809  0.87513415    -0.14600
C1090       C  0.97749541  0.87492327  0.87507375     0.09500
C1091       C  0.00028050  0.87491514  0.87497084     0.11300
C1092       C  0.01975067  0.87493134  0.87488044    -0.15400
C1093       C  0.87493189  0.87523919  0.01984203    -0.14600
C1094       C  0.87502905  0.87518172  0.00036543     0.09500
C1095       C  0.87512258  0.87509556  0.97756862     0.11300
C1096       C  0.87515347  0.87502404  0.95809079    -0.15400
C1097       C  0.87485770  0.87500425  0.73035836    -0.14600
C1098       C  0.87493226  0.87503874  0.74982944     0.09500
C1099       C  0.87502847  0.87501832  0.77261624     0.11300
C1100       C  0.87508367  0.87497971  0.79208738    -0.15400
C1101       C  0.87511146  0.95793291  0.87491803    -0.14600
C1102       C  0.87513835  0.97740701  0.87493359     0.09500
C1103       C  0.87516532  0.00019825  0.87495926     0.11300
C1104       C  0.87517813  0.01967209  0.87494968    -0.15400
C1105       C  0.02755481  0.80546622  0.80553555    -0.14600
C1106       C  0.03395534  0.81853279  0.81854829     0.09500
C1107       C  0.04147576  0.83386057  0.83376039     0.11300
C1108       C  0.04788068  0.84695110  0.84674320    -0.15400
C1109       C  0.94433813  0.80559362  0.72241165    -0.14600
C1110       C  0.93124529  0.81860991  0.71605305     0.09500
C1111       C  0.91590292  0.83384665  0.70858589     0.11300
C1112       C  0.90281789  0.84685982  0.70221448    -0.15400
C1113       C  0.94430529  0.72252853  0.80554479    -0.14600
C1114       C  0.93125758  0.71611935  0.81858780     0.09500
C1115       C  0.91596398  0.70854892  0.83383366     0.11300
C1116       C  0.90288629  0.70210296  0.84682328    -0.15400
C1117       C  0.05546839  0.69427112  0.77747440    -0.14600
C1118       C  0.06847847  0.68118859  0.78386954     0.09500
C1119       C  0.08371018  0.66584449  0.79134728     0.11300
C1120       C  0.09671400  0.65273805  0.79769586    -0.15400
C1121       C  0.09687935  0.79776184  0.65284212    -0.14600
C1122       C  0.08383783  0.79147007  0.66593447     0.09500
C1123       C  0.06858189  0.78409883  0.68129977     0.11300
C1124       C  0.05556084  0.77776404  0.69439559    -0.15400
C1125       C  0.95195976  0.65300075  0.65297007    -0.14600
C1126       C  0.95839036  0.66611656  0.66592853     0.09500
C1127       C  0.96591537  0.68146657  0.68113890     0.11300
C1128       C  0.97232174  0.69453003  0.69416615    -0.15400
C1129       C  0.12474687  0.62497596  0.54179815    -0.14600
C1130       C  0.12478410  0.62498860  0.52232973     0.09500
C1131       C  0.12483242  0.62499471  0.49954680     0.11300
C1132       C  0.12486261  0.62498325  0.48007777    -0.15400
C1133       C  0.12515978  0.48037691  0.62487852    -0.14600
C1134       C  0.12508053  0.49984340  0.62485136     0.09500
C1135       C  0.12488606  0.52262071  0.62478863     0.11300
C1136       C  0.12473174  0.54208527  0.62474517    -0.15400
C1137       C  0.04168747  0.62502597  0.62465008    -0.14600
C1138       C  0.02221856  0.62500325  0.62463973     0.09500
C1139       C  0.99943650  0.62495992  0.62468866     0.11300
C1140       C  0.97996892  0.62493133  0.62479359    -0.15400
C1141       C  0.20771910  0.62494044  0.62475215    -0.14600
C1142       C  0.22719318  0.62501349  0.62479750     0.09500
C1143       C  0.24998401  0.62510129  0.62487440     0.11300
C1144       C  0.26945744  0.62512716  0.62493888    -0.15400
C1145       C  0.12470946  0.70783557  0.62473681    -0.14600
C1146       C  0.12478229  0.72730198  0.62475899     0.09500
C1147       C  0.12489120  0.75008189  0.62481358     0.11300
C1148       C  0.12495990  0.76954950  0.62486303    -0.15400
C1149       C  0.12468860  0.62490167  0.70771616    -0.14600
C1150       C  0.12468711  0.62484307  0.72718749     0.09500
C1151       C  0.12468864  0.62476283  0.74997478     0.11300
C1152       C  0.12469443  0.62470974  0.76944626    -0.15400
C1153       C  0.80557086  0.80565520  0.02788689    -0.14600
C1154       C  0.81855683  0.81876134  0.03429600     0.09500
C1155       C  0.83378238  0.83413970  0.04173866     0.11300
C1156       C  0.84679475  0.84726002  0.04805145    -0.15400
C1157       C  0.84673663  0.70191346  0.90282470    -0.14600
C1158       C  0.83373027  0.70826307  0.91593482     0.09500
C1159       C  0.81851874  0.71579553  0.93128359     0.11300
C1160       C  0.80554260  0.72226578  0.94436947    -0.15400
C1161       C  0.72235719  0.80564987  0.94442014    -0.14600
C1162       C  0.71592880  0.81871190  0.93139415     0.09500
C1163       C  0.70843989  0.83402319  0.91611659     0.11300
C1164       C  0.70209813  0.84707538  0.90304469    -0.15400
C1165       C  0.69442391  0.77763487  0.05558180    -0.14600
C1166       C  0.68134580  0.78405804  0.06858622     0.09500
C1167       C  0.66602112  0.79158569  0.08382001     0.11300
C1168       C  0.65294700  0.79798334  0.09683657    -0.15400
C1169       C  0.77767725  0.69436058  0.05559149    -0.14600
C1170       C  0.78407357  0.68131980  0.06864205     0.09500
C1171       C  0.79155860  0.66603875  0.08393202     0.11300
C1172       C  0.79791519  0.65297446  0.09697287    -0.15400
C1173       C  0.65293044  0.65313478  0.95224474    -0.14600
C1174       C  0.66599061  0.66618219  0.95859984     0.09500
C1175       C  0.68130787  0.68143165  0.96610146     0.11300
C1176       C  0.69438617  0.69444242  0.97250530    -0.15400
C1177       C  0.62505467  0.48038717  0.12511504    -0.14600
C1178       C  0.62501691  0.49986321  0.12516659     0.09500
C1179       C  0.62500396  0.52265823  0.12520692     0.11300
C1180       C  0.62500119  0.54213469  0.12523690    -0.15400
C1181       C  0.48013007  0.62476071  0.12515592    -0.14600
C1182       C  0.49960842  0.62476614  0.12515783     0.09500
C1183       C  0.52240818  0.62484910  0.12515714     0.11300
C1184       C  0.54188807  0.62495428  0.12517790    -0.15400
C1185       C  0.76970444  0.62495439  0.12503404    -0.14600
C1186       C  0.75022709  0.62500287  0.12512919     0.09500
C1187       C  0.72742918  0.62506625  0.12524020     0.11300
C1188       C  0.70795047  0.62511534  0.12529633    -0.15400
C1189       C  0.62503737  0.62499819  0.27010164    -0.14600
C1190       C  0.62506610  0.62500053  0.25062364     0.09500
C1191       C  0.62503965  0.62500259  0.22782348     0.11300
C1192       C  0.62498485  0.62502230  0.20834299    -0.15400
C1193       C  0.62500226  0.70811955  0.12517842    -0.14600
C1194       C  0.62501738  0.72759735  0.12515314     0.09500
C1195       C  0.62501225  0.75039365  0.12511133     0.11300
C1196       C  0.62499161  0.76986989  0.12504589    -0.15400
C1197       C  0.62482619  0.62495951  0.04224108    -0.14600
C1198       C  0.62483912  0.62497469  0.02276456     0.09500
C1199       C  0.62488493  0.62504457  0.99997038     0.11300
C1200       C  0.62491711  0.62509221  0.98049550    -0.15400
C1201       C  0.30563397  0.80537149  0.52756797    -0.14600
C1202       C  0.31865513  0.81846061  0.53394163     0.09500
C1203       C  0.33389124  0.83384512  0.54135308     0.11300
C1204       C  0.34689343  0.84697199  0.54767598    -0.15400
C1205       C  0.20180040  0.84709116  0.40297715    -0.14600
C1206       C  0.20816971  0.83402531  0.41602338     0.09500
C1207       C  0.21573180  0.81875399  0.43130728     0.11300
C1208       C  0.22221288  0.80571754  0.44433438    -0.15400
C1209       C  0.19437991  0.77745486  0.55547538    -0.14600
C1210       C  0.18138388  0.78385428  0.56856831     0.09500
C1211       C  0.16615076  0.79136102  0.58389534     0.11300
C1212       C  0.15310794  0.79773806  0.59694794    -0.15400
C1213       C  0.30538184  0.72204269  0.44422802    -0.14600
C1214       C  0.31845107  0.71556223  0.43124183     0.09500
C1215       C  0.33382474  0.70804287  0.41605119     0.11300
C1216       C  0.34698725  0.70171177  0.40308995    -0.15400
C1217       C  0.19426949  0.69439212  0.47209701    -0.14600
C1218       C  0.18127954  0.68129718  0.46568713     0.09500
C1219       C  0.16605310  0.66595037  0.45820274     0.11300
C1220       C  0.15301073  0.65288299  0.45185418    -0.15400
C1221       C  0.27741360  0.69424178  0.55539176    -0.14600
C1222       C  0.28384970  0.68122509  0.56844618     0.09500
C1223       C  0.29138990  0.66600212  0.58376613     0.11300
C1224       C  0.29776175  0.65300793  0.59686898    -0.15400
C1225       C  0.80566908  0.44441525  0.22242926    -0.14600
C1226       C  0.81864726  0.43134653  0.21592508     0.09500
C1227       C  0.83386417  0.41603157  0.20833347     0.11300
C1228       C  0.84689802  0.40297157  0.20193730    -0.15400
C1229       C  0.80551491  0.52791325  0.30574465    -0.14600
C1230       C  0.81853501  0.53441376  0.31877434     0.09500
C1231       C  0.83382064  0.54198732  0.33403259     0.11300
C1232       C  0.84688736  0.54836344  0.34707057    -0.15400
C1233       C  0.77756226  0.55559983  0.19440679    -0.14600
C1234       C  0.78397732  0.56858762  0.18131612     0.09500
C1235       C  0.79152017  0.58379758  0.16598842     0.11300
C1236       C  0.79792149  0.59681070  0.15292159    -0.15400
C1237       C  0.70191516  0.40322693  0.34706630    -0.14600
C1238       C  0.70820685  0.41633003  0.33402840     0.09500
C1239       C  0.71566174  0.43165830  0.31876335     0.11300
C1240       C  0.72211049  0.44468923  0.30572492    -0.15400
C1241       C  0.69458471  0.47229086  0.19443678    -0.14600
C1242       C  0.68149460  0.46589618  0.18143758     0.09500
C1243       C  0.66614870  0.45845226  0.16619514     0.11300
C1244       C  0.65309178  0.45213852  0.15312778    -0.15400
C1245       C  0.65296108  0.59688948  0.29833711    -0.14600
C1246       C  0.66601340  0.58386839  0.29189263     0.09500
C1247       C  0.68129336  0.56864550  0.28423301     0.11300
C1248       C  0.69433714  0.55565627  0.27769593    -0.15400
C1249       C  0.19434715  0.19447099  0.97226419    -0.14600
C1250       C  0.18133971  0.18143656  0.96576312     0.09500
C1251       C  0.16617240  0.16606541  0.95820215     0.11300
C1252       C  0.15322840  0.15289666  0.95185730    -0.15400
C1253       C  0.15312515  0.29804252  0.09675276    -0.14600
C1254       C  0.16623134  0.29173790  0.08372403     0.09500
C1255       C  0.18157072  0.28423697  0.06849285     0.11300
C1256       C  0.19463293  0.27776690  0.05549598    -0.15400
C1257       C  0.27794537  0.19447061  0.05563852    -0.14600
C1258       C  0.28440322  0.18139474  0.06863168     0.09500
C1259       C  0.29191366  0.16597777  0.08378520     0.11300
C1260       C  0.29826626  0.15278921  0.09671018    -0.15400
C1261       C  0.30570942  0.30550273  0.02754220    -0.14600
C1262       C  0.31872780  0.31852748  0.03404815     0.09500
C1263       C  0.33400266  0.33378808  0.04162859     0.11300
C1264       C  0.34706455  0.34682289  0.04801564    -0.15400
C1265       C  0.34694147  0.20210350  0.90255625    -0.14600
C1266       C  0.33391253  0.20843812  0.91565464     0.09500
C1267       C  0.31868108  0.21582223  0.93106336     0.11300
C1268       C  0.30568733  0.22214294  0.94421060    -0.15400
C1269       C  0.22223269  0.30527774  0.94420923    -0.14600
C1270       C  0.21575141  0.31825181  0.93112295     0.09500
C1271       C  0.20824395  0.33347816  0.91577036     0.11300
C1272       C  0.20191180  0.34650009  0.90266317    -0.15400
C1273       C  0.37471117  0.45808661  0.87514495    -0.14600
C1274       C  0.37479402  0.47757115  0.87510390     0.09500
C1275       C  0.37495433  0.50037680  0.87499597     0.11300
C1276       C  0.37507828  0.51985790  0.87488809    -0.15400
C1277       C  0.45792623  0.37507102  0.87492399    -0.14600
C1278       C  0.47740651  0.37506092  0.87492998     0.09500
C1279       C  0.50020705  0.37502913  0.87496069     0.11300
C1280       C  0.51968611  0.37500786  0.87497866    -0.15400
C1281       C  0.23010604  0.37472493  0.87473023    -0.14600
C1282       C  0.24958726  0.37478800  0.87471873     0.09500
C1283       C  0.27239192  0.37483985  0.87469309     0.11300
C1284       C  0.29187495  0.37487567  0.87471273    -0.15400
C1285       C  0.37506600  0.37498699  0.79191771    -0.14600
C1286       C  0.37497543  0.37494428  0.77243106     0.09500
C1287       C  0.37482365  0.37487821  0.74962040     0.11300
C1288       C  0.37474121  0.37482062  0.73013541    -0.15400
C1289       C  0.37499305  0.37498906  0.95804823    -0.14600
C1290       C  0.37499718  0.37501490  0.97753016     0.09500
C1291       C  0.37499772  0.37501503  0.00033279     0.11300
C1292       C  0.37501553  0.37497723  0.01981252    -0.15400
C1293       C  0.37493412  0.29188535  0.87491578    -0.14600
C1294       C  0.37506543  0.27240030  0.87474558     0.09500
C1295       C  0.37521529  0.24959237  0.87457468     0.11300
C1296       C  0.37523593  0.23010875  0.87454730    -0.15400
C1297       C  0.22208010  0.44423522  0.80540669    -0.14600
C1298       C  0.21562182  0.43115951  0.81840230     0.09500
C1299       C  0.20813770  0.41580949  0.83364190     0.11300
C1300       C  0.20182378  0.40268449  0.84665346    -0.15400
C1301       C  0.34706832  0.54805964  0.84677860    -0.14600
C1302       C  0.33390573  0.54169971  0.83382659     0.09500
C1303       C  0.31852254  0.53416786  0.81864250     0.11300
C1304       C  0.30545787  0.52769362  0.80564301    -0.15400
C1305       C  0.19441846  0.55555331  0.77737072    -0.14600
C1306       C  0.18134054  0.56857471  0.78374660     0.09500
C1307       C  0.16598929  0.58379195  0.79123154     0.11300
C1308       C  0.15286562  0.59676466  0.79760400    -0.15400
C1309       C  0.15309416  0.45211538  0.65295889    -0.14600
C1310       C  0.16614570  0.45845984  0.66601094     0.09500
C1311       C  0.18142913  0.46594151  0.68128723     0.11300
C1312       C  0.19447123  0.47233728  0.69432710    -0.15400
C1313       C  0.34669158  0.40278127  0.70182128    -0.14600
C1314       C  0.33364770  0.41584322  0.70817179     0.09500
C1315       C  0.31843169  0.43115726  0.71573219     0.11300
C1316       C  0.30547117  0.44423317  0.72223495    -0.15400
C1317       C  0.27747801  0.55546285  0.69426358    -0.14600
C1318       C  0.28379212  0.56855282  0.68122670     0.09500
C1319       C  0.29121413  0.58390973  0.66598759     0.11300
C1320       C  0.29756814  0.59701323  0.65298819    -0.15400
C1321       C  0.44441185  0.22231138  0.80534851    -0.14600
C1322       C  0.43147794  0.21571357  0.81839861     0.09500
C1323       C  0.41630473  0.20803151  0.83369026     0.11300
C1324       C  0.40326462  0.20164296  0.84673527    -0.15400
C1325       C  0.52768050  0.30555519  0.80557075    -0.14600
C1326       C  0.53411888  0.31859532  0.81860356     0.09500
C1327       C  0.54159664  0.33393086  0.83384739     0.11300
C1328       C  0.54791914  0.34704173  0.84686051    -0.15400
C1329       C  0.59719965  0.15331144  0.79799096    -0.14600
C1330       C  0.58405398  0.16635060  0.79177213     0.09500
C1331       C  0.56864530  0.18158715  0.78439617     0.11300
C1332       C  0.55553704  0.19456621  0.77796511    -0.15400
C1333       C  0.47242463  0.19431859  0.69425342    -0.14600
C1334       C  0.46595302  0.18132157  0.68118391     0.09500
C1335       C  0.45839050  0.16609780  0.66585494     0.11300
C1336       C  0.45199474  0.15306011  0.65279569    -0.15400
C1337       C  0.55563987  0.27796508  0.69445532    -0.14600
C1338       C  0.56874718  0.28442663  0.68149236     0.09500
C1339       C  0.58413937  0.29190007  0.66628850     0.11300
C1340       C  0.59727909  0.29820974  0.65328897    -0.15400
C1341       C  0.40288618  0.34684804  0.70193899    -0.14600
C1342       C  0.41597702  0.33380633  0.70823614     0.09500
C1343       C  0.43131240  0.31853335  0.71563961     0.11300
C1344       C  0.44438918  0.30551204  0.72201995    -0.15400
C1345       C  0.40305654  0.84678691  0.20175666    -0.14600
C1346       C  0.41615272  0.83377438  0.20811535     0.09500
C1347       C  0.43149795  0.81858783  0.21569301     0.11300
C1348       C  0.44456465  0.80561950  0.22221096    -0.15400
C1349       C  0.52778771  0.80548199  0.30558271    -0.14600
C1350       C  0.53417610  0.81854523  0.31861958     0.09500
C1351       C  0.54160729  0.83386558  0.33390553     0.11300
C1352       C  0.54792571  0.84693028  0.34696943    -0.15400
C1353       C  0.55567423  0.77767767  0.19438815    -0.14600
C1354       C  0.56867400  0.78418821  0.18134493     0.09500
C1355       C  0.58390391  0.79178215  0.16604383     0.11300
C1356       C  0.59692060  0.79816816  0.15296210    -0.15400
C1357       C  0.44435340  0.72222592  0.30554748    -0.14600
C1358       C  0.43136473  0.71576786  0.31862999     0.09500
C1359       C  0.41616975  0.70823527  0.33399929     0.11300
C1360       C  0.40319470  0.70185752  0.34712825    -0.15400
C1361       C  0.47215548  0.69451548  0.19428197    -0.14600
C1362       C  0.46571728  0.68142481  0.18129392     0.09500
C1363       C  0.45823458  0.66602521  0.16610779     0.11300
C1364       C  0.45190175  0.65288040  0.15312833    -0.15400
C1365       C  0.55548497  0.69426339  0.27774776    -0.14600
C1366       C  0.56852816  0.68125696  0.28425500     0.09500
C1367       C  0.58382754  0.66601926  0.29185198     0.11300
C1368       C  0.59688769  0.65298863  0.29826547    -0.15400
C1369       C  0.05539412  0.05569878  0.97213741    -0.14600
C1370       C  0.06841840  0.06878806  0.96577565     0.09500
C1371       C  0.08379457  0.08403884  0.95838507     0.11300
C1372       C  0.09698364  0.09698644  0.95208390    -0.15400
C1373       C  0.97237000  0.05548109  0.05555428    -0.14600
C1374       C  0.96591383  0.06857173  0.06853746     0.09500
C1375       C  0.95839792  0.08394246  0.08374255     0.11300
C1376       C  0.95206494  0.09706661  0.09674714    -0.15400
C1377       C  0.05558133  0.97207342  0.05545891    -0.14600
C1378       C  0.06865978  0.96565028  0.06846584     0.09500
C1379       C  0.08406090  0.95817054  0.08365042     0.11300
C1380       C  0.09723249  0.95180582  0.09658710    -0.15400
C1381       C  0.94445507  0.94437427  0.02758529    -0.14600
C1382       C  0.93139595  0.93139571  0.03408229     0.09500
C1383       C  0.91606568  0.91621060  0.04167197     0.11300
C1384       C  0.90295178  0.90324330  0.04807249    -0.15400
C1385       C  0.94450962  0.02762040  0.94437202    -0.14600
C1386       C  0.93151570  0.03405877  0.93129885     0.09500
C1387       C  0.91629614  0.04156478  0.91596170     0.11300
C1388       C  0.90328063  0.04791728  0.90287152    -0.15400
C1389       C  0.04800344  0.90299313  0.90280022    -0.14600
C1390       C  0.04160994  0.91599486  0.91588627     0.09500
C1391       C  0.03405900  0.93122911  0.93119279     0.11300
C1392       C  0.02762170  0.94425084  0.94424384    -0.15400
C1393       C  0.97235197  0.55571348  0.55555383    -0.14600
C1394       C  0.96579271  0.56871546  0.56857025     0.09500
C1395       C  0.95809750  0.58391402  0.58385166     0.11300
C1396       C  0.95164314  0.59689425  0.59693660    -0.15400
C1397       C  0.05554940  0.47235008  0.55556675    -0.14600
C1398       C  0.06863033  0.46600424  0.56860049     0.09500
C1399       C  0.08397224  0.45858886  0.58386206     0.11300
C1400       C  0.09705553  0.45224605  0.59688999    -0.15400
C1401       C  0.02784181  0.44440747  0.44438056    -0.14600
C1402       C  0.03428648  0.43140801  0.43130057     0.09500
C1403       C  0.04172816  0.41613553  0.41596263     0.11300
C1404       C  0.04801225  0.40305073  0.40289706    -0.15400
C1405       C  0.09680436  0.59696548  0.45189983    -0.14600
C1406       C  0.08378579  0.58388077  0.45825521     0.09500
C1407       C  0.06855994  0.56853912  0.46573814     0.11300
C1408       C  0.05555892  0.55546636  0.47216104    -0.15400
C1409       C  0.90298452  0.54828138  0.40315951    -0.14600
C1410       C  0.91605853  0.54198494  0.41623171     0.09500
C1411       C  0.93136161  0.53451349  0.43152549     0.11300
C1412       C  0.94440102  0.52803003  0.44454591    -0.15400
C1413       C  0.94435410  0.44448206  0.52788655    -0.14600
C1414       C  0.93131169  0.43146246  0.53437757     0.09500
C1415       C  0.91600623  0.41618424  0.54189547     0.11300
C1416       C  0.90292580  0.40312577  0.54821626    -0.15400
C1417       C  0.59686408  0.95213515  0.59684805    -0.14600
C1418       C  0.58372376  0.95835629  0.58381484     0.09500
C1419       C  0.56838449  0.96570614  0.56851291     0.11300
C1420       C  0.55535226  0.97208831  0.55544471    -0.15400
C1421       C  0.59701027  0.09696872  0.45181516    -0.14600
C1422       C  0.58392604  0.08391972  0.45813849     0.09500
C1423       C  0.56861407  0.06864428  0.46563455     0.11300
C1424       C  0.55556319  0.05562066  0.47209234    -0.15400
C1425       C  0.47217949  0.05539908  0.55557207    -0.14600
C1426       C  0.46568996  0.06833517  0.56868521     0.09500
C1427       C  0.45814643  0.08354036  0.58403066     0.11300
C1428       C  0.45180567  0.09660858  0.59708098    -0.15400
C1429       C  0.44435389  0.02784648  0.44432289    -0.14600
C1430       C  0.43133342  0.03424365  0.43124736     0.09500
C1431       C  0.41605667  0.04165310  0.41590772     0.11300
C1432       C  0.40298948  0.04793344  0.40282752    -0.15400
C1433       C  0.40300822  0.90301354  0.54796491    -0.14600
C1434       C  0.41608994  0.91604025  0.54161090     0.09500
C1435       C  0.43135999  0.93130020  0.53403468     0.11300
C1436       C  0.44436057  0.94433534  0.52752322    -0.15400
C1437       C  0.52774017  0.94445507  0.44432874    -0.14600
C1438       C  0.53422613  0.93139042  0.43134346     0.09500
C1439       C  0.54175628  0.91606545  0.41611362     0.11300
C1440       C  0.54808785  0.90297523  0.40308262    -0.15400
C1441       C  0.55559000  0.55560651  0.97260765    -0.14600
C1442       C  0.56864043  0.56866225  0.96624596     0.09500
C1443       C  0.58392433  0.58393842  0.95874183     0.11300
C1444       C  0.59696507  0.59697903  0.95233920    -0.15400
C1445       C  0.45192732  0.59695942  0.09689443    -0.14600
C1446       C  0.45833500  0.58395362  0.08381528     0.09500
C1447       C  0.46591061  0.56867364  0.06856139     0.11300
C1448       C  0.47237106  0.55560333  0.05556820    -0.15400
C1449       C  0.55561839  0.47233879  0.05565628    -0.14600
C1450       C  0.56874022  0.46596015  0.06863533     0.09500
C1451       C  0.58413734  0.45851292  0.08382944     0.11300
C1452       C  0.59725480  0.45218351  0.09683164    -0.15400
C1453       C  0.40305118  0.40299317  0.04805692    -0.14600
C1454       C  0.41607111  0.41609023  0.04171472     0.09500
C1455       C  0.43133871  0.43139647  0.03421805     0.11300
C1456       C  0.44438172  0.44442913  0.02778168    -0.15400
C1457       C  0.40309444  0.54810823  0.90294771    -0.14600
C1458       C  0.41605853  0.54174197  0.91609976     0.09500
C1459       C  0.43127983  0.53418112  0.93143915     0.11300
C1460       C  0.44431159  0.52769050  0.94446910    -0.15400
C1461       C  0.54793129  0.40290185  0.90315127    -0.14600
C1462       C  0.54163715  0.41588787  0.91630300     0.09500
C1463       C  0.53421441  0.43115631  0.93164046     0.11300
C1464       C  0.52781785  0.44423038  0.94466003    -0.15400
loop_ 
_geom_bond_atom_site_label_1 
_geom_bond_atom_site_label_2 
_geom_bond_distance 
_geom_bond_site_symmetry_2 
_ccdc_geom_bond_type 
Zn1           O5   1.968   1_556  S
Zn1           O6   2.023       .  S
Zn1          O10   2.023       .  S
Zn1          O17   2.025       .  S
Zn2           O5   1.968       .  S
Zn2           O7   2.023       .  S
Zn2           O9   2.024       .  S
Zn2          O13   2.023       .  S
Zn3           O5   1.968   1_556  S
Zn3           O8   2.024       .  S
Zn3          O11   2.022   1_556  S
Zn3          O14   2.023       .  S
Zn4           O5   1.968   1_556  S
Zn4          O12   2.022       .  S
Zn4          O15   2.022   1_556  S
Zn4          O16   2.025       .  S
O6           C18   1.273   1_556  A
O7           C19   1.273       .  A
O8           C20   1.273       .  A
O9           C18   1.273       .  A
O10          C20   1.273       .  A
O11          C19   1.272       .  A
O12          C21   1.272       .  A
O13          C22   1.273       .  A
O14          C21   1.273       .  A
O15          C22   1.272       .  A
O16          C23   1.273       .  A
O17          C23   1.273       .  A
C18        C1456   1.438       .  S
C19        C1449   1.438       .  S
C20        C1464   1.438       .  S
C21        C1441   1.438       .  S
C22        C1448   1.438       .  S
C23        C1460   1.439       .  S
Zn24         O28   1.968   1_565  S
Zn24         O29   2.023       .  S
Zn24         O33   2.023       .  S
Zn24         O40   2.024       .  S
Zn25         O28   1.968   1_565  S
Zn25         O30   2.025   1_565  S
Zn25         O32   2.023       .  S
Zn25         O36   2.023       .  S
Zn26         O28   1.968       .  S
Zn26         O31   2.024       .  S
Zn26         O34   2.025       .  S
Zn26         O37   2.024       .  S
Zn27         O28   1.967   1_565  S
Zn27         O35   2.022   1_565  S
Zn27         O38   2.022       .  S
Zn27         O39   2.022       .  S
O29          C41   1.273       .  A
O30          C42   1.273       .  A
O31          C43   1.273       .  A
O32          C41   1.273       .  A
O33          C43   1.273   1_565  A
O34          C42   1.273       .  A
O35          C44   1.272       .  A
O36          C45   1.273       .  A
O37          C44   1.273       .  A
O38          C45   1.272       .  A
O39          C46   1.272       .  A
O40          C46   1.272       .  A
C41        C1437   1.438       .  S
C42        C1424   1.439       .  S
C43        C1429   1.438       .  S
C44        C1425   1.438       .  S
C45        C1420   1.438       .  S
C46        C1436   1.438       .  S
Zn47         O51   1.968   1_455  S
Zn47         O52   2.021       .  S
Zn47         O56   2.021       .  S
Zn47         O63   2.023       .  S
Zn48         O51   1.968   1_455  S
Zn48         O53   2.024       .  S
Zn48         O55   2.023       .  S
Zn48         O59   2.024   1_455  S
Zn49         O51   1.969   1_455  S
Zn49         O54   2.024       .  S
Zn49         O57   2.026       .  S
Zn49         O60   2.025   1_455  S
Zn50         O51   1.968       .  S
Zn50         O58   2.025       .  S
Zn50         O61   2.024       .  S
Zn50         O62   2.024       .  S
O52          C64   1.272       .  A
O53          C65   1.273       .  A
O54          C66   1.273       .  A
O55          C64   1.273       .  A
O56          C66   1.272       .  A
O57          C65   1.273       .  A
O58          C67   1.273       .  A
O59          C68   1.273       .  A
O60          C67   1.273       .  A
O61          C68   1.273       .  A
O62          C69   1.272       .  A
O63          C69   1.272   1_455  A
C64        C1408   1.438       .  S
C65        C1401   1.439       .  S
C66        C1397   1.438       .  S
C67        C1413   1.439       .  S
C68        C1412   1.439       .  S
C69        C1393   1.438       .  S
Zn70         O74   1.967   1_544  S
Zn70         O75   2.023       .  S
Zn70         O79   2.023       .  S
Zn70         O86   2.023       .  S
Zn71         O74   1.968   1_554  S
Zn71         O76   2.022   1_455  S
Zn71         O78   2.024       .  S
Zn71         O82   2.023   1_554  S
Zn72         O74   1.967   1_644  S
Zn72         O77   2.024       .  S
Zn72         O80   2.022   1_545  S
Zn72         O83   2.022   1_554  S
Zn73         O74   1.968   1_545  S
Zn73         O81   2.021   1_455  S
Zn73         O84   2.023   1_545  S
Zn73         O85   2.024       .  S
O75          C87   1.273   1_545  A
O76          C88   1.272       .  A
O77          C89   1.273       .  A
O78          C87   1.273       .  A
O79          C89   1.272   1_455  A
O80          C88   1.272       .  A
O81          C90   1.272       .  A
O82          C91   1.273       .  A
O83          C90   1.273       .  A
O84          C91   1.273       .  A
O85          C92   1.273       .  A
O86          C92   1.273   1_554  A
C87        C1377   1.438       .  S
C88        C1381   1.438       .  S
C89        C1373   1.439       .  S
C90        C1385   1.438       .  S
C91        C1392   1.438       .  S
C92        C1369   1.438       .  S
Zn93         O97   1.968       .  S
Zn93         O98   2.024       .  S
Zn93        O102   2.024       .  S
Zn93        O109   2.024       .  S
Zn94         O97   1.968       .  S
Zn94         O99   2.023       .  S
Zn94        O101   2.024       .  S
Zn94        O105   2.023       .  S
Zn95         O97   1.969       .  S
Zn95        O100   2.024       .  S
Zn95        O103   2.022       .  S
Zn95        O106   2.025       .  S
Zn96         O97   1.968       .  S
Zn96        O104   2.024       .  S
Zn96        O107   2.024       .  S
Zn96        O108   2.024       .  S
O98         C110   1.273       .  A
O99         C111   1.273       .  A
O100        C112   1.273       .  A
O101        C110   1.273       .  A
O102        C112   1.273       .  A
O103        C111   1.273       .  A
O104        C113   1.273       .  A
O105        C114   1.273       .  A
O106        C113   1.273       .  A
O107        C114   1.273       .  A
O108        C115   1.273       .  A
O109        C115   1.273       .  A
C110       C1353   1.439       .  S
C111       C1348   1.438       .  S
C112       C1361   1.439       .  S
C113       C1357   1.439       .  S
C114       C1349   1.438       .  S
C115       C1365   1.439       .  S
Zn116       O120   1.968       .  S
Zn116       O121   2.024       .  S
Zn116       O125   2.025       .  S
Zn116       O132   2.021       .  S
Zn117       O120   1.967       .  S
Zn117       O122   2.023       .  S
Zn117       O124   2.023       .  S
Zn117       O128   2.023       .  S
Zn118       O120   1.968       .  S
Zn118       O123   2.025       .  S
Zn118       O126   2.025       .  S
Zn118       O129   2.024       .  S
Zn119       O120   1.968       .  S
Zn119       O127   2.021       .  S
Zn119       O130   2.023       .  S
Zn119       O131   2.022       .  S
O121        C133   1.273       .  A
O122        C134   1.273       .  A
O123        C135   1.273       .  A
O124        C133   1.273       .  A
O125        C135   1.273       .  A
O126        C134   1.273       .  A
O127        C136   1.272       .  A
O128        C137   1.272       .  A
O129        C136   1.273       .  A
O130        C137   1.272       .  A
O131        C138   1.273       .  A
O132        C138   1.272       .  A
C133       C1332   1.439       .  S
C134       C1337   1.439       .  S
C135       C1333   1.439       .  S
C136       C1344   1.438       .  S
C137       C1325   1.438       .  S
C138       C1321   1.437       .  S
Zn139       O143   1.967       .  S
Zn139       O144   2.024       .  S
Zn139       O148   2.023       .  S
Zn139       O155   2.024       .  S
Zn140       O143   1.968       .  S
Zn140       O145   2.022       .  S
Zn140       O147   2.024       .  S
Zn140       O151   2.022       .  S
Zn141       O143   1.968       .  S
Zn141       O146   2.022       .  S
Zn141       O149   2.022       .  S
Zn141       O152   2.021       .  S
Zn142       O143   1.967       .  S
Zn142       O150   2.021       .  S
Zn142       O153   2.022       .  S
Zn142       O154   2.024       .  S
O144        C156   1.273       .  A
O145        C157   1.272       .  A
O146        C158   1.272       .  A
O147        C156   1.273       .  A
O148        C158   1.273       .  A
O149        C157   1.272       .  A
O150        C159   1.272       .  A
O151        C160   1.272       .  A
O152        C159   1.272       .  A
O153        C160   1.272       .  A
O154        C161   1.273       .  A
O155        C161   1.273       .  A
C156       C1304   1.439       .  S
C157       C1317   1.438       .  S
C158       C1316   1.438       .  S
C159       C1312   1.437       .  S
C160       C1305   1.438       .  S
C161       C1297   1.439       .  S
Zn162       O166   1.962       .  S
Zn162       O167   2.015       .  S
Zn162       O171   2.014       .  S
Zn162       O178   2.014       .  S
Zn163       O166   1.962       .  S
Zn163       O168   2.015       .  S
Zn163       O170   2.015       .  S
Zn163       O174   2.014       .  S
Zn164       O166   1.961       .  S
Zn164       O169   2.014       .  S
Zn164       O172   2.015       .  S
Zn164       O175   2.013       .  S
Zn165       O166   1.962       .  S
Zn165       O173   2.017       .  S
Zn165       O176   2.015       .  S
Zn165       O177   2.016       .  S
O167        C179   1.271       .  A
O168        C180   1.271       .  A
O169        C181   1.271       .  A
O170        C179   1.271       .  A
O171        C181   1.271       .  A
O172        C180   1.271       .  A
O173        C182   1.272       .  A
O174        C183   1.271       .  A
O175        C182   1.271       .  A
O176        C183   1.272       .  A
O177        C184   1.272       .  A
O178        C184   1.271       .  A
C179       C1273   1.434       .  S
C180       C1285   1.434       .  S
C181       C1277   1.433       .  S
C182       C1293   1.434       .  S
C183       C1284   1.433       .  S
C184       C1289   1.433       .  S
N185        C189   1.349       .  A
N185        C186   1.348       .  A
N185       C1281   1.405       .  S
C186       C1300   1.444       .  S
C186        C187   1.382       .  A
C187        C188   1.385       .  A
C187        H190   1.082       .  S
C188        C189   1.382       .  A
C188        H191   1.082       .  S
C189       C1272   1.444       .  S
N192        C196   1.348       .  A
N192        C193   1.349       .  A
N192       C1276   1.405       .  S
C193       C1457   1.445       .  S
C193        C194   1.382       .  A
C194        C195   1.385       .  A
C194        H197   1.082       .  S
C195        C196   1.382       .  A
C195        H198   1.082       .  S
C196       C1301   1.444       .  S
N199        C203   1.348       .  A
N199        C200   1.348       .  A
N199       C1280   1.405       .  S
C200       C1461   1.444       .  S
C200        C201   1.382       .  A
C201        C202   1.385       .  A
C201        H204   1.082       .  S
C202        C203   1.382       .  A
C202        H205   1.082       .  S
C203       C1328   1.444       .  S
N206        C210   1.348       .  A
N206        C207   1.348       .  A
N206       C1288   1.405       .  S
C207       C1313   1.443       .  S
C207        C208   1.382       .  A
C208        C209   1.385       .  A
C208        H211   1.082       .  S
C209        C210   1.382       .  A
C209        H212   1.082       .  S
C210       C1341   1.443       .  S
N213        C217   1.348       .  A
N213        C214   1.348       .  A
N213       C1296   1.405       .  S
C214       C1265   1.444       .  S
C214        C215   1.382       .  A
C215        C216   1.385       .  A
C215        H218   1.082       .  S
C216        C217   1.382       .  A
C216        H219   1.082       .  S
C217       C1324   1.443       .  S
N220        C224   1.348       .  A
N220        C221   1.348       .  A
N220       C1292   1.405       .  S
C221       C1453   1.444       .  S
C221        C222   1.382       .  A
C222        C223   1.385       .  A
C222        H225   1.082       .  S
C223        C224   1.382       .  A
C223        H226   1.082       .  S
C224       C1264   1.444       .  S
Zn227       O231   1.968   1_554  S
Zn227       O232   2.023       .  S
Zn227       O236   2.024       .  S
Zn227       O243   2.022       .  S
Zn228       O231   1.968   1_554  S
Zn228       O233   2.025   1_554  S
Zn228       O235   2.024       .  S
Zn228       O239   2.024       .  S
Zn229       O231   1.968       .  S
Zn229       O234   2.023       .  S
Zn229       O237   2.024       .  S
Zn229       O240   2.023       .  S
Zn230       O231   1.968   1_554  S
Zn230       O238   2.024   1_554  S
Zn230       O241   2.024       .  S
Zn230       O242   2.023       .  S
O232        C244   1.273       .  A
O233        C245   1.273       .  A
O234        C246   1.272       .  A
O235        C244   1.273       .  A
O236        C246   1.273   1_554  A
O237        C245   1.273       .  A
O238        C247   1.273       .  A
O239        C248   1.273       .  A
O240        C247   1.272       .  A
O241        C248   1.273       .  A
O242        C249   1.273       .  A
O243        C249   1.272       .  A
C244       C1257   1.438       .  S
C245       C1268   1.439       .  S
C246       C1249   1.438       .  S
C247       C1269   1.439       .  S
C248       C1261   1.438       .  S
C249       C1256   1.438       .  S
Zn250       O254   1.968       .  S
Zn250       O255   2.023       .  S
Zn250       O259   2.024       .  S
Zn250       O266   2.025       .  S
Zn251       O254   1.968       .  S
Zn251       O256   2.023       .  S
Zn251       O258   2.023       .  S
Zn251       O262   2.022       .  S
Zn252       O254   1.968       .  S
Zn252       O257   2.025       .  S
Zn252       O260   2.024       .  S
Zn252       O263   2.024       .  S
Zn253       O254   1.968       .  S
Zn253       O261   2.022       .  S
Zn253       O264   2.023       .  S
Zn253       O265   2.023       .  S
O255        C267   1.273       .  A
O256        C268   1.272       .  A
O257        C269   1.273       .  A
O258        C267   1.273       .  A
O259        C269   1.273       .  A
O260        C268   1.273       .  A
O261        C270   1.272       .  A
O262        C271   1.272       .  A
O263        C270   1.273       .  A
O264        C271   1.273       .  A
O265        C272   1.273       .  A
O266        C272   1.273       .  A
C267       C1240   1.438       .  S
C268       C1248   1.439       .  S
C269       C1229   1.439       .  S
C270       C1233   1.438       .  S
C271       C1241   1.438       .  S
C272       C1225   1.438       .  S
Zn273       O277   1.968       .  S
Zn273       O278   2.024       .  S
Zn273       O282   2.023       .  S
Zn273       O289   2.023       .  S
Zn274       O277   1.968       .  S
Zn274       O279   2.024       .  S
Zn274       O281   2.025       .  S
Zn274       O285   2.023       .  S
Zn275       O277   1.968       .  S
Zn275       O280   2.023       .  S
Zn275       O283   2.022       .  S
Zn275       O286   2.023       .  S
Zn276       O277   1.968       .  S
Zn276       O284   2.022       .  S
Zn276       O287   2.022       .  S
Zn276       O288   2.025       .  S
O278        C290   1.273       .  A
O279        C291   1.273       .  A
O280        C292   1.273       .  A
O281        C290   1.273       .  A
O282        C292   1.273       .  A
O283        C291   1.272       .  A
O284        C293   1.272       .  A
O285        C294   1.273       .  A
O286        C293   1.272       .  A
O287        C294   1.272       .  A
O288        C295   1.273       .  A
O289        C295   1.273       .  A
C290       C1208   1.439       .  S
C291       C1217   1.438       .  S
C292       C1213   1.438       .  S
C293       C1221   1.438       .  S
C294       C1209   1.438       .  S
C295       C1201   1.439       .  S
Zn296       O300   1.961       .  S
Zn296       O301   2.013       .  S
Zn296       O305   2.014       .  S
Zn296       O312   2.015       .  S
Zn297       O300   1.961       .  S
Zn297       O302   2.013       .  S
Zn297       O304   2.012       .  S
Zn297       O308   2.013       .  S
Zn298       O300   1.961       .  S
Zn298       O303   2.014       .  S
Zn298       O306   2.014       .  S
Zn298       O309   2.014       .  S
Zn299       O300   1.961       .  S
Zn299       O307   2.014       .  S
Zn299       O310   2.014       .  S
Zn299       O311   2.014       .  S
O301        C313   1.271       .  A
O302        C314   1.271       .  A
O303        C315   1.271       .  A
O304        C313   1.271       .  A
O305        C315   1.271       .  A
O306        C314   1.271       .  A
O307        C316   1.271       .  A
O308        C317   1.271       .  A
O309        C316   1.271       .  A
O310        C317   1.271       .  A
O311        C318   1.271       .  A
O312        C318   1.271       .  A
C313       C1180   1.433       .  S
C314       C1197   1.433       .  S
C315       C1184   1.433       .  S
C316       C1193   1.433       .  S
C317       C1188   1.433       .  S
C318       C1192   1.433       .  S
N319        C323   1.348       .  A
N319        C320   1.348       .  A
N319       C1200   1.404       .  S
C320       C1173   1.444       .  S
C320        C321   1.382       .  A
C321        C322   1.385       .  A
C321        H324   1.082       .  S
C322        C323   1.382       .  A
C322        H325   1.082       .  S
C323       C1444   1.444       .  S
N326        C330   1.348       .  A
N326        C327   1.348       .  A
N326       C1177   1.404       .  S
C327       C1452   1.444       .  S
C327        C328   1.382       .  A
C328        C329   1.385       .  A
C328        H331   1.082       .  S
C329        C330   1.382       .  A
C329        H332   1.082       .  S
C330       C1244   1.444       .  S
N333        C337   1.348       .  A
N333        C334   1.348       .  A
N333       C1185   1.404       .  S
C334       C1172   1.443       .  S
C334        C335   1.382       .  A
C335        C336   1.385       .  A
C335        H338   1.082       .  S
C336        C337   1.382       .  A
C336        H339   1.082       .  S
C337       C1236   1.443       .  S
N340        C344   1.348       .  A
N340        C341   1.348       .  A
N340       C1181   1.404       .  S
C341       C1445   1.444       .  S
C341        C342   1.382       .  A
C342        C343   1.385       .  A
C342        H345   1.082       .  S
C343        C344   1.382       .  A
C343        H346   1.082       .  S
C344       C1364   1.444       .  S
N347        C351   1.348       .  A
N347        C348   1.348       .  A
N347       C1196   1.404       .  S
C348       C1168   1.444       .  S
C348        C349   1.382       .  A
C349        C350   1.385       .  A
C349        H352   1.082       .  S
C350        C351   1.382       .  A
C350        H353   1.082       .  S
C351       C1356   1.444       .  S
N354        C358   1.348       .  A
N354        C355   1.348       .  A
N354       C1189   1.404       .  S
C355       C1368   1.444       .  S
C355        C356   1.382       .  A
C356        C357   1.386       .  A
C356        H359   1.082       .  S
C357        C358   1.382       .  A
C357        H360   1.082       .  S
C358       C1245   1.444       .  S
Zn361       O365   1.968   1_556  S
Zn361       O366   2.023       .  S
Zn361       O370   2.024       .  S
Zn361       O377   2.024       .  S
Zn362       O365   1.968       .  S
Zn362       O367   2.023       .  S
Zn362       O369   2.025       .  S
Zn362       O373   2.023       .  S
Zn363       O365   1.968   1_556  S
Zn363       O368   2.024       .  S
Zn363       O371   2.023   1_556  S
Zn363       O374   2.023       .  S
Zn364       O365   1.968   1_556  S
Zn364       O372   2.023       .  S
Zn364       O375   2.023   1_556  S
Zn364       O376   2.024       .  S
O366        C378   1.273   1_556  A
O367        C379   1.273       .  A
O368        C380   1.273       .  A
O369        C378   1.273       .  A
O370        C380   1.273       .  A
O371        C379   1.273       .  A
O372        C381   1.273       .  A
O373        C382   1.272       .  A
O374        C381   1.272       .  A
O375        C382   1.273       .  A
O376        C383   1.273       .  A
O377        C383   1.273       .  A
C378       C1153   1.439       .  S
C379       C1165   1.438       .  S
C380       C1161   1.439       .  S
C381       C1176   1.438       .  S
C382       C1169   1.438       .  S
C383       C1160   1.438       .  S
Zn384       O388   1.959       .  S
Zn384       O389   2.009       .  S
Zn384       O393   2.011       .  S
Zn384       O400   2.012       .  S
Zn385       O388   1.959       .  S
Zn385       O390   2.011       .  S
Zn385       O392   2.011       .  S
Zn385       O396   2.011       .  S
Zn386       O388   1.959       .  S
Zn386       O391   2.012       .  S
Zn386       O394   2.012       .  S
Zn386       O397   2.011       .  S
Zn387       O388   1.959       .  S
Zn387       O395   2.010       .  S
Zn387       O398   2.011       .  S
Zn387       O399   2.012       .  S
O389        C401   1.271       .  A
O390        C402   1.271       .  A
O391        C403   1.271       .  A
O392        C401   1.271       .  A
O393        C403   1.271       .  A
O394        C402   1.271       .  A
O395        C404   1.271       .  A
O396        C405   1.271       .  A
O397        C404   1.271       .  A
O398        C405   1.271       .  A
O399        C406   1.271       .  A
O400        C406   1.271       .  A
C401       C1136   1.431       .  S
C402       C1137   1.432       .  S
C403       C1149   1.432       .  S
C404       C1145   1.431       .  S
C405       C1129   1.432       .  S
C406       C1141   1.432       .  S
N407        C411   1.348       .  A
N407        C408   1.348       .  A
N407       C1140   1.404       .  S
C408       C1125   1.444       .  S
C408        C409   1.382       .  A
C409        C410   1.386       .  A
C409        H412   1.082       .  S
C410        C411   1.382       .  A
C410        H413   1.082       .  S
C411       C1396   1.444       .  S
N414        C418   1.348       .  A
N414        C415   1.348       .  A
N414       C1148   1.404       .  S
C415       C1212   1.444       .  S
C415        C416   1.382       .  A
C416        C417   1.385       .  A
C416        H419   1.082       .  S
C417        C418   1.382       .  A
C417        H420   1.082       .  S
C418       C1121   1.443       .  S
N421        C425   1.348       .  A
N421        C422   1.348       .  A
N421       C1132   1.404       .  S
C422       C1220   1.444       .  S
C422        C423   1.382       .  A
C423        C424   1.385       .  A
C423        H426   1.082       .  S
C424        C425   1.382       .  A
C424        H427   1.082       .  S
C425       C1405   1.444       .  S
N428        C432   1.348       .  A
N428        C429   1.348       .  A
N428       C1152   1.404       .  S
C429       C1308   1.443       .  S
C429        C430   1.382       .  A
C430        C431   1.385       .  A
C430        H433   1.082       .  S
C431        C432   1.382       .  A
C431        H434   1.082       .  S
C432       C1120   1.444       .  S
N435        C439   1.348       .  A
N435        C436   1.348       .  A
N435       C1133   1.404       .  S
C436       C1309   1.443       .  S
C436        C437   1.382       .  A
C437        C438   1.385       .  A
C437        H440   1.082       .  S
C438        C439   1.382       .  A
C438        H441   1.082       .  S
C439       C1400   1.443       .  S
N442        C446   1.348       .  A
N442        C443   1.348       .  A
N442       C1144   1.404       .  S
C443       C1320   1.443       .  S
C443        C444   1.382       .  A
C444        C445   1.385       .  A
C444        H447   1.082       .  S
C445        C446   1.382       .  A
C445        H448   1.082       .  S
C446       C1224   1.443       .  S
Zn449       O453   1.967   1_455  S
Zn449       O454   2.024       .  S
Zn449       O458   2.021       .  S
Zn449       O465   2.022   1_455  S
Zn450       O453   1.967   1_455  S
Zn450       O455   2.021       .  S
Zn450       O457   2.020       .  S
Zn450       O461   2.021       .  S
Zn451       O453   1.967   1_455  S
Zn451       O456   2.022       .  S
Zn451       O459   2.024       .  S
Zn451       O462   2.023   1_455  S
Zn452       O453   1.967       .  S
Zn452       O460   2.024       .  S
Zn452       O463   2.025       .  S
Zn452       O464   2.022       .  S
O454        C466   1.273       .  A
O455        C467   1.272       .  A
O456        C468   1.272       .  A
O457        C466   1.272       .  A
O458        C468   1.272       .  A
O459        C467   1.273       .  A
O460        C469   1.273       .  A
O461        C470   1.272   1_455  A
O462        C469   1.273       .  A
O463        C470   1.273       .  A
O464        C471   1.272       .  A
O465        C471   1.272       .  A
C466       C1124   1.438       .  S
C467       C1117   1.438       .  S
C468       C1105   1.437       .  S
C469       C1113   1.438       .  S
C470       C1128   1.438       .  S
C471       C1109   1.438       .  S
Zn472       O476   1.960       .  S
Zn472       O477   2.013       .  S
Zn472       O481   2.013       .  S
Zn472       O488   2.013       .  S
Zn473       O476   1.960       .  S
Zn473       O478   2.013       .  S
Zn473       O480   2.014       .  S
Zn473       O484   2.013       .  S
Zn474       O476   1.960       .  S
Zn474       O479   2.013       .  S
Zn474       O482   2.014       .  S
Zn474       O485   2.012       .  S
Zn475       O476   1.960       .  S
Zn475       O483   2.011       .  S
Zn475       O486   2.012       .  S
Zn475       O487   2.011       .  S
O477        C489   1.271       .  A
O478        C490   1.271       .  A
O479        C491   1.271       .  A
O480        C489   1.271       .  A
O481        C491   1.271       .  A
O482        C490   1.271       .  A
O483        C492   1.271       .  A
O484        C493   1.271       .  A
O485        C492   1.271       .  A
O486        C493   1.271       .  A
O487        C494   1.271       .  A
O488        C494   1.271       .  A
C489       C1084   1.433       .  S
C490       C1096   1.433       .  S
C491       C1085   1.432       .  S
C492       C1089   1.432       .  S
C493       C1101   1.432       .  S
C494       C1100   1.432       .  S
N495        C499   1.348       .  A
N495        C496   1.348       .  A
N495       C1093   1.404       .  S
C496       C1156   1.444       .  S
C496        C497   1.382       .  A
C497        C498   1.385       .  A
C497        H500   1.082       .  S
C498        C499   1.382       .  A
C498        H501   1.082       .  S
C499       C1384   1.444       .  S
N502        C506   1.348       .  A
N502        C503   1.348       .  A
N502       C1097   1.404       .  S
C503       C1077   1.443       .  S
C503        C504   1.382       .  A
C504        C505   1.385       .  A
C504        H507   1.082       .  S
C505        C506   1.382       .  A
C505        H508   1.082       .  S
C506       C1112   1.443       .  S
N509        C513   1.348       .  A
N509        C510   1.348       .  A
N509       C1088   1.404       .  S
C510       C1157   1.444       .  S
C510        C511   1.382       .  A
C511        C512   1.386       .  A
C511        H514   1.082       .  S
C512        C513   1.382       .  A
C512        H515   1.082       .  S
C513       C1116   1.444       .  S
N516        C520   1.348       .  A
N516        C517   1.348       .  A
N516       C1081   1.404       .  S
C517       C1073   1.444       .  S
C517        C518   1.382       .  A
C518        C519   1.385       .  A
C518        H521   1.082       .  S
C519        C520   1.382       .  A
C519        H522   1.082       .  S
C520       C1164   1.444       .  S
N523        C527   1.348       .  A
N523        C524   1.348       .  A
N523       C1092   1.404       .  S
C524       C1389   1.444       .  S
C524        C525   1.382       .  A
C525        C526   1.385       .  A
C525        H528   1.082       .  S
C526        C527   1.382       .  A
C526        H529   1.082       .  S
C527       C1108   1.443       .  S
N530        C534   1.348       .  A
N530        C531   1.348       .  A
N530       C1104   1.404       .  S
C531       C1069   1.444       .  S
C531        C532   1.382       .  A
C532        C533   1.385       .  A
C532        H535   1.082       .  S
C533        C534   1.382       .  A
C533        H536   1.082       .  S
C534       C1388   1.443       .  S
Zn537       O541   1.962       .  S
Zn537       O542   2.014       .  S
Zn537       O546   2.014       .  S
Zn537       O553   2.013       .  S
Zn538       O541   1.962       .  S
Zn538       O543   2.015       .  S
Zn538       O545   2.014       .  S
Zn538       O549   2.016       .  S
Zn539       O541   1.961       .  S
Zn539       O544   2.013       .  S
Zn539       O547   2.015       .  S
Zn539       O550   2.014       .  S
Zn540       O541   1.961       .  S
Zn540       O548   2.015       .  S
Zn540       O551   2.016       .  S
Zn540       O552   2.015       .  S
O542        C554   1.271       .  A
O543        C555   1.271       .  A
O544        C556   1.271       .  A
O545        C554   1.271       .  A
O546        C556   1.271       .  A
O547        C555   1.272       .  A
O548        C557   1.272       .  A
O549        C558   1.272       .  A
O550        C557   1.271       .  A
O551        C558   1.272       .  A
O552        C559   1.271       .  A
O553        C559   1.271       .  A
C554       C1053   1.433       .  S
C555       C1065   1.434       .  S
C556       C1061   1.433       .  S
C557       C1057   1.433       .  S
C558       C1048   1.434       .  S
C559       C1052   1.433       .  S
N560        C564   1.348       .  A
N560        C561   1.348       .  A
N560       C1056   1.405       .  S
C561       C1417   1.444       .  S
C561        C562   1.382       .  A
C562        C563   1.385       .  A
C562        H565   1.082       .  S
C563        C564   1.382       .  A
C563        H566   1.082       .  S
C564       C1041   1.444       .  S
N567        C571   1.348       .  A
N567        C568   1.348       .  A
N567       C1049   1.404       .  S
C568       C1421   1.444       .  S
C568        C569   1.382       .  A
C569        C570   1.385       .  A
C569        H572   1.082       .  S
C570        C571   1.382       .  A
C570        H573   1.082       .  S
C571       C1037   1.444       .  S
N574        C578   1.349       .  A
N574        C575   1.348       .  A
N574       C1068   1.405       .  S
C575       C1033   1.444       .  S
C575        C576   1.382       .  A
C576        C577   1.385       .  A
C576        H579   1.082       .  S
C577        C578   1.382       .  A
C577        H580   1.082       .  S
C578       C1329   1.444       .  S
N581        C585   1.348       .  A
N581        C582   1.348       .  A
N581       C1045   1.405       .  S
C582       C1428   1.444       .  S
C582        C583   1.382       .  A
C583        C584   1.385       .  A
C583        H586   1.082       .  S
C584        C585   1.382       .  A
C584        H587   1.082       .  S
C585       C1336   1.444       .  S
N588        C592   1.348       .  A
N588        C589   1.348       .  A
N588       C1064   1.404       .  S
C589       C1025   1.444       .  S
C589        C590   1.382       .  A
C590        C591   1.385       .  A
C590        H593   1.082       .  S
C591        C592   1.382       .  A
C591        H594   1.082       .  S
C592       C1029   1.444       .  S
N595        C599   1.348       .  A
N595        C596   1.348       .  A
N595       C1060   1.405       .  S
C596       C1021   1.444       .  S
C596        C597   1.382       .  A
C597        C598   1.385       .  A
C597        H600   1.082       .  S
C598        C599   1.382       .  A
C598        H601   1.082       .  S
C599       C1340   1.444       .  S
Zn602       O606   1.967       .  S
Zn602       O607   2.022       .  S
Zn602       O611   2.023       .  S
Zn602       O618   2.023       .  S
Zn603       O606   1.968       .  S
Zn603       O608   2.023   1_545  S
Zn603       O610   2.023       .  S
Zn603       O614   2.024       .  S
Zn604       O606   1.968   1_565  S
Zn604       O609   2.024       .  S
Zn604       O612   2.022       .  S
Zn604       O615   2.022       .  S
Zn605       O606   1.968       .  S
Zn605       O613   2.022   1_545  S
Zn605       O616   2.024       .  S
Zn605       O617   2.024       .  S
O607        C619   1.273       .  A
O608        C620   1.273       .  A
O609        C621   1.273       .  A
O610        C619   1.273       .  A
O611        C621   1.272   1_545  A
O612        C620   1.272       .  A
O613        C622   1.273       .  A
O614        C623   1.273       .  A
O615        C622   1.272       .  A
O616        C623   1.273       .  A
O617        C624   1.273       .  A
O618        C624   1.273       .  A
C619       C1036   1.438       .  S
C620       C1076   1.438       .  S
C621       C1044   1.438       .  S
C622       C1080   1.437       .  S
C623       C1072   1.438       .  S
C624       C1032   1.438       .  S
Zn625       O629   1.968       .  S
Zn625       O630   2.023       .  S
Zn625       O634   2.023       .  S
Zn625       O641   2.024       .  S
Zn626       O629   1.968       .  S
Zn626       O631   2.022       .  S
Zn626       O633   2.023       .  S
Zn626       O637   2.023       .  S
Zn627       O629   1.968       .  S
Zn627       O632   2.024       .  S
Zn627       O635   2.023       .  S
Zn627       O638   2.024       .  S
Zn628       O629   1.968       .  S
Zn628       O636   2.024       .  S
Zn628       O639   2.024       .  S
Zn628       O640   2.024       .  S
O630        C642   1.273       .  A
O631        C643   1.272       .  A
O632        C644   1.273       .  A
O633        C642   1.272       .  A
O634        C644   1.273       .  A
O635        C643   1.273       .  A
O636        C645   1.273       .  A
O637        C646   1.272       .  A
O638        C645   1.273       .  A
O639        C646   1.273       .  A
O640        C647   1.273       .  A
O641        C647   1.273       .  A
C642       C1024   1.438       .  S
C643       C1040   1.438       .  S
C644       C1017   1.438       .  S
C645       C1009   1.439       .  S
C646       C1028   1.438       .  S
C647       C1013   1.439       .  S
Zn648       O652   1.962       .  S
Zn648       O653   2.013       .  S
Zn648       O657   2.015       .  S
Zn648       O664   2.015       .  S
Zn649       O652   1.962       .  S
Zn649       O654   2.015       .  S
Zn649       O656   2.014       .  S
Zn649       O660   2.015       .  S
Zn650       O652   1.961       .  S
Zn650       O655   2.015       .  S
Zn650       O658   2.015       .  S
Zn650       O661   2.015       .  S
Zn651       O652   1.961       .  S
Zn651       O659   2.012       .  S
Zn651       O662   2.014       .  S
Zn651       O663   2.014       .  S
O653        C665   1.271       .  A
O654        C666   1.271       .  A
O655        C667   1.271       .  A
O656        C665   1.272       .  A
O657        C667   1.271       .  A
O658        C666   1.271       .  A
O659        C668   1.271       .  A
O660        C669   1.271       .  A
O661        C668   1.271       .  A
O662        C669   1.271       .  A
O663        C670   1.271       .  A
O664        C670   1.271       .  A
C665       C1008   1.433       .  S
C666        C993   1.433       .  S
C667        C997   1.433       .  S
C668        C992   1.433       .  S
C669       C1001   1.434       .  S
C670        C985   1.433       .  S
N671        C675   1.348       .  A
N671        C672   1.348       .  A
N671        C996   1.405       .  S
C672       C1205   1.444       .  S
C672        C673   1.382       .  A
C673        C674   1.385       .  A
C673        H676   1.082       .  S
C674        C675   1.382       .  A
C674        H677   1.082       .  S
C675        C981   1.444       .  S
N678        C682   1.348       .  A
N678        C679   1.348       .  A
N678        C988   1.405       .  S
C679       C1440   1.444       .  S
C679        C680   1.382       .  A
C680        C681   1.385       .  A
C680        H683   1.082       .  S
C681        C682   1.382       .  A
C681        H684   1.082       .  S
C682       C1352   1.444       .  S
N685        C689   1.348       .  A
N685        C686   1.348       .  A
N685        C989   1.404       .  S
C686       C1204   1.444       .  S
C686        C687   1.382       .  A
C687        C688   1.385       .  A
C687        H690   1.082       .  S
C688        C689   1.382       .  A
C688        H691   1.082       .  S
C689       C1433   1.444       .  S
N692        C696   1.348       .  A
N692        C693   1.348       .  A
N692       C1000   1.405       .  S
C693       C1216   1.444       .  S
C693        C694   1.382       .  A
C694        C695   1.385       .  A
C694        H697   1.082       .  S
C695        C696   1.382       .  A
C695        H698   1.082       .  S
C696       C1360   1.444       .  S
N699        C703   1.348       .  A
N699        C700   1.348       .  A
N699       C1005   1.404       .  S
C700       C1345   1.444       .  S
C700        C701   1.382       .  A
C701        C702   1.385       .  A
C701        H704   1.082       .  S
C702        C703   1.382       .  A
C702        H705   1.082       .  S
C703        C977   1.444       .  S
N706        C710   1.348       .  A
N706        C707   1.348       .  A
N706       C1004   1.405       .  S
C707       C1432   1.444       .  S
C707        C708   1.382       .  A
C708        C709   1.385       .  A
C708        H711   1.082       .  S
C709        C710   1.382       .  A
C709        H712   1.082       .  S
C710        C973   1.444       .  S
Zn713       O717   1.968       .  S
Zn713       O718   2.023       .  S
Zn713       O722   2.024       .  S
Zn713       O729   2.024       .  S
Zn714       O717   1.968   1_545  S
Zn714       O719   2.023       .  S
Zn714       O721   2.025       .  S
Zn714       O725   2.024       .  S
Zn715       O717   1.967   1_545  S
Zn715       O720   2.022   1_545  S
Zn715       O723   2.021       .  S
Zn715       O726   2.022       .  S
Zn716       O717   1.968   1_545  S
Zn716       O724   2.023       .  S
Zn716       O727   2.023       .  S
Zn716       O728   2.023   1_545  S
O718        C730   1.273       .  A
O719        C731   1.273       .  A
O720        C732   1.272       .  A
O721        C730   1.273   1_545  A
O722        C732   1.273       .  A
O723        C731   1.272       .  A
O724        C733   1.272       .  A
O725        C734   1.273       .  A
O726        C733   1.272       .  A
O727        C734   1.273       .  A
O728        C735   1.273       .  A
O729        C735   1.273       .  A
C730        C964   1.438       .  S
C731        C968   1.438       .  S
C732        C984   1.438       .  S
C733        C976   1.438       .  S
C734        C972   1.438       .  S
C735        C980   1.438       .  S
Zn736       O740   1.962       .  S
Zn736       O741   2.015       .  S
Zn736       O745   2.015       .  S
Zn736       O752   2.015       .  S
Zn737       O740   1.962       .  S
Zn737       O742   2.015       .  S
Zn737       O744   2.016       .  S
Zn737       O748   2.015       .  S
Zn738       O740   1.962       .  S
Zn738       O743   2.015       .  S
Zn738       O746   2.016       .  S
Zn738       O749   2.017       .  S
Zn739       O740   1.962       .  S
Zn739       O747   2.015       .  S
Zn739       O750   2.013       .  S
Zn739       O751   2.015       .  S
O741        C753   1.271       .  A
O742        C754   1.272       .  A
O743        C755   1.272       .  A
O744        C753   1.272       .  A
O745        C755   1.272       .  A
O746        C754   1.272       .  A
O747        C756   1.271       .  A
O748        C757   1.272       .  A
O749        C756   1.272       .  A
O750        C757   1.271       .  A
O751        C758   1.271       .  A
O752        C758   1.271       .  A
C753        C941   1.434       .  S
C754        C945   1.434       .  S
C755        C949   1.434       .  S
C756        C937   1.434       .  S
C757        C953   1.433       .  S
C758        C957   1.434       .  S
N759        C763   1.348       .  A
N759        C760   1.348       .  A
N759        C956   1.405       .  S
C760       C1372   1.444       .  S
C760        C761   1.382       .  A
C761        C762   1.385       .  A
C761        H764   1.082       .  S
C762        C763   1.382       .  A
C762        H765   1.082       .  S
C763       C1252   1.444       .  S
N766        C770   1.348       .  A
N766        C767   1.348       .  A
N766        C944   1.405       .  S
C767        C961   1.444       .  S
C767        C768   1.382       .  A
C768        C769   1.385       .  A
C768        H771   1.082       .  S
C769        C770   1.382       .  A
C769        H772   1.082       .  S
C770       C1380   1.444       .  S
N773        C777   1.348       .  A
N773        C774   1.348       .  A
N773        C948   1.405       .  S
C774        C933   1.444       .  S
C774        C775   1.382       .  A
C775        C776   1.385       .  A
C775        H778   1.082       .  S
C776        C777   1.382       .  A
C776        H779   1.082       .  S
C777       C1376   1.444       .  S
N780        C784   1.349       .  A
N780        C781   1.349       .  A
N780        C952   1.405       .  S
C781        C929   1.445       .  S
C781        C782   1.382       .  A
C782        C783   1.385       .  A
C782        H785   1.082       .  S
C783        C784   1.382       .  A
C783        H786   1.082       .  S
C784        C965   1.444       .  S
N787        C791   1.349       .  A
N787        C788   1.349       .  A
N787        C940   1.405       .  S
C788        C928   1.444       .  S
C788        C789   1.382       .  A
C789        C790   1.385       .  A
C789        H792   1.082       .  S
C790        C791   1.382       .  A
C790        H793   1.082       .  S
C791       C1253   1.444       .  S
N794        C798   1.348       .  A
N794        C795   1.348       .  A
N794        C960   1.405       .  S
C795        C969   1.444       .  S
C795        C796   1.382       .  A
C796        C797   1.385       .  A
C796        H799   1.082       .  S
C797        C798   1.382       .  A
C797        H800   1.082       .  S
C798       C1260   1.444       .  S
Zn801       O805   1.962       .  S
Zn801       O806   2.015       .  S
Zn801       O810   2.017       .  S
Zn801       O817   2.015       .  S
Zn802       O805   1.962       .  S
Zn802       O807   2.014       .  S
Zn802       O809   2.015       .  S
Zn802       O813   2.014       .  S
Zn803       O805   1.962       .  S
Zn803       O808   2.016       .  S
Zn803       O811   2.015       .  S
Zn803       O814   2.015       .  S
Zn804       O805   1.962       .  S
Zn804       O812   2.016       .  S
Zn804       O815   2.015       .  S
Zn804       O816   2.015       .  S
O806        C818   1.271       .  A
O807        C819   1.271       .  A
O808        C820   1.272       .  A
O809        C818   1.271       .  A
O810        C820   1.272       .  A
O811        C819   1.272       .  A
O812        C821   1.272       .  A
O813        C822   1.271       .  A
O814        C821   1.272       .  A
O815        C822   1.271       .  A
O816        C823   1.272       .  A
O817        C823   1.272       .  A
C818        C909   1.434       .  S
C819        C917   1.433       .  S
C820        C905   1.434       .  S
C821        C904   1.434       .  S
C822        C913   1.433       .  S
C823        C921   1.434       .  S
N824        C828   1.348       .  A
N824        C825   1.348       .  A
N824        C916   1.405       .  S
C825       C1228   1.444       .  S
C825        C826   1.382       .  A
C826        C827   1.385       .  A
C826        H829   1.082       .  S
C827        C828   1.382       .  A
C827        H830   1.082       .  S
C828        C897   1.444       .  S
N831        C835   1.348       .  A
N831        C832   1.349       .  A
N831        C912   1.405       .  S
C832       C1012   1.444       .  S
C832        C833   1.382       .  A
C833        C834   1.385       .  A
C833        H836   1.082       .  S
C834        C835   1.382       .  A
C834        H837   1.082       .  S
C835        C896   1.444       .  S
N838        C842   1.348       .  A
N838        C839   1.348       .  A
N838        C924   1.405       .  S
C839        C892   1.444       .  S
C839        C840   1.382       .  A
C840        C841   1.385       .  A
C840        H843   1.082       .  S
C841        C842   1.382       .  A
C841        H844   1.082       .  S
C842       C1404   1.444       .  S
N845        C849   1.349       .  A
N845        C846   1.349       .  A
N845        C908   1.405       .  S
C846       C1016   1.444       .  S
C846        C847   1.382       .  A
C847        C848   1.385       .  A
C847        H850   1.082       .  S
C848        C849   1.382       .  A
C848        H851   1.082       .  S
C849       C1416   1.445       .  S
N852        C856   1.349       .  A
N852        C853   1.348       .  A
N852        C901   1.405       .  S
C853       C1232   1.444       .  S
C853        C854   1.382       .  A
C854        C855   1.385       .  A
C854        H857   1.082       .  S
C855        C856   1.382       .  A
C855        H858   1.082       .  S
C856       C1409   1.444       .  S
N859        C863   1.349       .  A
N859        C860   1.348       .  A
N859        C920   1.405       .  S
C860       C1237   1.444       .  S
C860        C861   1.382       .  A
C861        C862   1.385       .  A
C861        H864   1.082       .  S
C862        C863   1.382       .  A
C862        H865   1.082       .  S
C863       C1020   1.444       .  S
Zn866       O870   1.968   1_655  S
Zn866       O871   2.024       .  S
Zn866       O875   2.024       .  S
Zn866       O882   2.024   1_655  S
Zn867       O870   1.968   1_655  S
Zn867       O872   2.022       .  S
Zn867       O874   2.023       .  S
Zn867       O878   2.022       .  S
Zn868       O870   1.968   1_655  S
Zn868       O873   2.024       .  S
Zn868       O876   2.023       .  S
Zn868       O879   2.025   1_655  S
Zn869       O870   1.968       .  S
Zn869       O877   2.025       .  S
Zn869       O880   2.023       .  S
Zn869       O881   2.024       .  S
O871        C883   1.273       .  A
O872        C884   1.272       .  A
O873        C885   1.273       .  A
O874        C883   1.272       .  A
O875        C885   1.273       .  A
O876        C884   1.273       .  A
O877        C886   1.273       .  A
O878        C887   1.272   1_655  A
O879        C886   1.273       .  A
O880        C887   1.273       .  A
O881        C888   1.273       .  A
O882        C888   1.273       .  A
C883        C900   1.438       .  S
C884        C893   1.438       .  S
C885        C936   1.439       .  S
C886        C932   1.439       .  S
C887        C889   1.438       .  S
C888        C925   1.439       .  S
C889        C890   1.207       .  T
C890        C891   1.414       .  S
C891        C892   1.207       .  T
C893        C894   1.207       .  T
C894        C895   1.414       .  S
C895        C896   1.207       .  T
C897        C898   1.207       .  T
C898        C899   1.415       .  S
C899        C900   1.207       .  T
C901        C902   1.205       .  T
C902        C903   1.410       .  S
C903        C904   1.205       .  T
C905        C906   1.205       .  T
C906        C907   1.410       .  S
C907        C908   1.205       .  T
C909        C910   1.205       .  T
C910        C911   1.410       .  S
C911        C912   1.205       .  T
C913        C914   1.205       .  T
C914        C915   1.410       .  S
C915        C916   1.204       .  T
C917        C918   1.205       .  T
C918        C919   1.410       .  S
C919        C920   1.204       .  T
C921        C922   1.205       .  T
C922        C923   1.410   1_655  S
C923        C924   1.205       .  T
C925        C926   1.208       .  T
C926        C927   1.415       .  S
C927        C928   1.207       .  T
C929        C930   1.208       .  T
C930        C931   1.416       .  S
C931        C932   1.208       .  T
C933        C934   1.207       .  T
C934        C935   1.415       .  S
C935        C936   1.208       .  T
C937        C938   1.205       .  T
C938        C939   1.411       .  S
C939        C940   1.205       .  T
C941        C942   1.205       .  T
C942        C943   1.410   1_545  S
C943        C944   1.205       .  T
C945        C946   1.205       .  T
C946        C947   1.410   1_455  S
C947        C948   1.204       .  T
C949        C950   1.205       .  T
C950        C951   1.410       .  S
C951        C952   1.205       .  T
C953        C954   1.204       .  T
C954        C955   1.410   1_554  S
C955        C956   1.204       .  T
C957        C958   1.205       .  T
C958        C959   1.410       .  S
C959        C960   1.204       .  T
C961        C962   1.207       .  T
C962        C963   1.415       .  S
C963        C964   1.207       .  T
C965        C966   1.207       .  T
C966        C967   1.414       .  S
C967        C968   1.207       .  T
C969        C970   1.207       .  T
C970        C971   1.414       .  S
C971        C972   1.207       .  T
C973        C974   1.207       .  T
C974        C975   1.415       .  S
C975        C976   1.207       .  T
C977        C978   1.207       .  T
C978        C979   1.415       .  S
C979        C980   1.207       .  T
C981        C982   1.207       .  T
C982        C983   1.415       .  S
C983        C984   1.207       .  T
C985        C986   1.204       .  T
C986        C987   1.410       .  S
C987        C988   1.204       .  T
C989        C990   1.204       .  T
C990        C991   1.409       .  S
C991        C992   1.204       .  T
C993        C994   1.204       .  T
C994        C995   1.410       .  S
C995        C996   1.204       .  T
C997        C998   1.204       .  T
C998        C999   1.410       .  S
C999       C1000   1.204       .  T
C1001      C1002   1.205       .  T
C1002      C1003   1.410   1_565  S
C1003      C1004   1.205       .  T
C1005      C1006   1.204       .  T
C1006      C1007   1.410       .  S
C1007      C1008   1.204       .  T
C1009      C1010   1.208       .  T
C1010      C1011   1.415       .  S
C1011      C1012   1.207       .  T
C1013      C1014   1.208       .  T
C1014      C1015   1.415       .  S
C1015      C1016   1.207       .  T
C1017      C1018   1.207       .  T
C1018      C1019   1.415       .  S
C1019      C1020   1.207       .  T
C1021      C1022   1.207       .  T
C1022      C1023   1.415       .  S
C1023      C1024   1.207       .  T
C1025      C1026   1.207       .  T
C1026      C1027   1.415       .  S
C1027      C1028   1.207       .  T
C1029      C1030   1.207       .  T
C1030      C1031   1.415       .  S
C1031      C1032   1.207       .  T
C1033      C1034   1.207       .  T
C1034      C1035   1.415       .  S
C1035      C1036   1.207       .  T
C1037      C1038   1.207       .  T
C1038      C1039   1.414       .  S
C1039      C1040   1.207       .  T
C1041      C1042   1.207       .  T
C1042      C1043   1.415       .  S
C1043      C1044   1.207       .  T
C1045      C1046   1.205       .  T
C1046      C1047   1.410       .  S
C1047      C1048   1.205       .  T
C1049      C1050   1.204       .  T
C1050      C1051   1.410       .  S
C1051      C1052   1.204       .  T
C1053      C1054   1.204       .  T
C1054      C1055   1.410   1_545  S
C1055      C1056   1.204       .  T
C1057      C1058   1.204       .  T
C1058      C1059   1.410       .  S
C1059      C1060   1.204       .  T
C1061      C1062   1.204       .  T
C1062      C1063   1.409       .  S
C1063      C1064   1.204       .  T
C1065      C1066   1.205       .  T
C1066      C1067   1.410       .  S
C1067      C1068   1.205       .  T
C1069      C1070   1.207       .  T
C1070      C1071   1.415       .  S
C1071      C1072   1.207       .  T
C1073      C1074   1.207       .  T
C1074      C1075   1.415       .  S
C1075      C1076   1.207       .  T
C1077      C1078   1.207       .  T
C1078      C1079   1.414       .  S
C1079      C1080   1.207       .  T
C1081      C1082   1.204       .  T
C1082      C1083   1.409       .  S
C1083      C1084   1.204       .  T
C1085      C1086   1.204       .  T
C1086      C1087   1.409       .  S
C1087      C1088   1.204       .  T
C1089      C1090   1.204       .  T
C1090      C1091   1.409   1_655  S
C1091      C1092   1.204       .  T
C1093      C1094   1.204       .  T
C1094      C1095   1.409   1_554  S
C1095      C1096   1.204       .  T
C1097      C1098   1.204       .  T
C1098      C1099   1.409       .  S
C1099      C1100   1.204       .  T
C1101      C1102   1.204       .  T
C1102      C1103   1.409   1_565  S
C1103      C1104   1.204       .  T
C1105      C1106   1.207       .  T
C1106      C1107   1.414       .  S
C1107      C1108   1.207       .  T
C1109      C1110   1.207       .  T
C1110      C1111   1.414       .  S
C1111      C1112   1.207       .  T
C1113      C1114   1.207       .  T
C1114      C1115   1.415       .  S
C1115      C1116   1.207       .  T
C1117      C1118   1.207       .  T
C1118      C1119   1.414       .  S
C1119      C1120   1.207       .  T
C1121      C1122   1.207       .  T
C1122      C1123   1.414       .  S
C1123      C1124   1.207       .  T
C1125      C1126   1.207       .  T
C1126      C1127   1.415       .  S
C1127      C1128   1.207       .  T
C1129      C1130   1.204       .  T
C1130      C1131   1.409       .  S
C1131      C1132   1.204       .  T
C1133      C1134   1.203       .  T
C1134      C1135   1.408       .  S
C1135      C1136   1.203       .  T
C1137      C1138   1.204       .  T
C1138      C1139   1.408   1_455  S
C1139      C1140   1.204       .  T
C1141      C1142   1.204       .  T
C1142      C1143   1.409       .  S
C1143      C1144   1.204       .  T
C1145      C1146   1.203       .  T
C1146      C1147   1.408       .  S
C1147      C1148   1.204       .  T
C1149      C1150   1.204       .  T
C1150      C1151   1.409       .  S
C1151      C1152   1.204       .  T
C1153      C1154   1.208       .  T
C1154      C1155   1.415       .  S
C1155      C1156   1.207       .  T
C1157      C1158   1.207       .  T
C1158      C1159   1.415       .  S
C1159      C1160   1.207       .  T
C1161      C1162   1.208       .  T
C1162      C1163   1.415       .  S
C1163      C1164   1.207       .  T
C1165      C1166   1.207       .  T
C1166      C1167   1.415       .  S
C1167      C1168   1.207       .  T
C1169      C1170   1.207       .  T
C1170      C1171   1.414       .  S
C1171      C1172   1.207       .  T
C1173      C1174   1.207       .  T
C1174      C1175   1.415       .  S
C1175      C1176   1.207       .  T
C1177      C1178   1.204       .  T
C1178      C1179   1.409       .  S
C1179      C1180   1.204       .  T
C1181      C1182   1.204       .  T
C1182      C1183   1.410       .  S
C1183      C1184   1.204       .  T
C1185      C1186   1.204       .  T
C1186      C1187   1.409       .  S
C1187      C1188   1.204       .  T
C1189      C1190   1.204       .  T
C1190      C1191   1.410       .  S
C1191      C1192   1.204       .  T
C1193      C1194   1.204       .  T
C1194      C1195   1.409       .  S
C1195      C1196   1.204       .  T
C1197      C1198   1.204       .  T
C1198      C1199   1.409   1_554  S
C1199      C1200   1.204       .  T
C1201      C1202   1.208       .  T
C1202      C1203   1.415       .  S
C1203      C1204   1.207       .  T
C1205      C1206   1.207       .  T
C1206      C1207   1.415       .  S
C1207      C1208   1.208       .  T
C1209      C1210   1.207       .  T
C1210      C1211   1.414       .  S
C1211      C1212   1.207       .  T
C1213      C1214   1.207       .  T
C1214      C1215   1.415       .  S
C1215      C1216   1.207       .  T
C1217      C1218   1.207       .  T
C1218      C1219   1.414       .  S
C1219      C1220   1.207       .  T
C1221      C1222   1.207       .  T
C1222      C1223   1.414       .  S
C1223      C1224   1.207       .  T
C1225      C1226   1.208       .  T
C1226      C1227   1.415       .  S
C1227      C1228   1.207       .  T
C1229      C1230   1.208       .  T
C1230      C1231   1.415       .  S
C1231      C1232   1.207       .  T
C1233      C1234   1.207       .  T
C1234      C1235   1.414       .  S
C1235      C1236   1.207       .  T
C1237      C1238   1.207       .  T
C1238      C1239   1.415       .  S
C1239      C1240   1.207       .  T
C1241      C1242   1.207       .  T
C1242      C1243   1.414       .  S
C1243      C1244   1.207       .  T
C1245      C1246   1.207       .  T
C1246      C1247   1.415       .  S
C1247      C1248   1.208       .  T
C1249      C1250   1.207       .  T
C1250      C1251   1.415       .  S
C1251      C1252   1.207       .  T
C1253      C1254   1.207       .  T
C1254      C1255   1.415       .  S
C1255      C1256   1.207       .  T
C1257      C1258   1.207       .  T
C1258      C1259   1.415       .  S
C1259      C1260   1.207       .  T
C1261      C1262   1.208       .  T
C1262      C1263   1.415       .  S
C1263      C1264   1.207       .  T
C1265      C1266   1.207       .  T
C1266      C1267   1.415       .  S
C1267      C1268   1.208       .  T
C1269      C1270   1.208       .  T
C1270      C1271   1.415       .  S
C1271      C1272   1.207       .  T
C1273      C1274   1.205       .  T
C1274      C1275   1.410       .  S
C1275      C1276   1.204       .  T
C1277      C1278   1.204       .  T
C1278      C1279   1.410       .  S
C1279      C1280   1.204       .  T
C1281      C1282   1.204       .  T
C1282      C1283   1.410       .  S
C1283      C1284   1.204       .  T
C1285      C1286   1.205       .  T
C1286      C1287   1.410       .  S
C1287      C1288   1.205       .  T
C1289      C1290   1.204       .  T
C1290      C1291   1.410   1_556  S
C1291      C1292   1.204       .  T
C1293      C1294   1.205       .  T
C1294      C1295   1.410       .  S
C1295      C1296   1.205       .  T
C1297      C1298   1.208       .  T
C1298      C1299   1.415       .  S
C1299      C1300   1.207       .  T
C1301      C1302   1.207       .  T
C1302      C1303   1.415       .  S
C1303      C1304   1.208       .  T
C1305      C1306   1.207       .  T
C1306      C1307   1.414       .  S
C1307      C1308   1.207       .  T
C1309      C1310   1.207       .  T
C1310      C1311   1.414       .  S
C1311      C1312   1.207       .  T
C1313      C1314   1.207       .  T
C1314      C1315   1.414       .  S
C1315      C1316   1.207       .  T
C1317      C1318   1.207       .  T
C1318      C1319   1.414       .  S
C1319      C1320   1.207       .  T
C1321      C1322   1.207       .  T
C1322      C1323   1.414       .  S
C1323      C1324   1.207       .  T
C1325      C1326   1.207       .  T
C1326      C1327   1.415       .  S
C1327      C1328   1.207       .  T
C1329      C1330   1.207       .  T
C1330      C1331   1.415       .  S
C1331      C1332   1.208       .  T
C1333      C1334   1.208       .  T
C1334      C1335   1.415       .  S
C1335      C1336   1.207       .  T
C1337      C1338   1.208       .  T
C1338      C1339   1.415       .  S
C1339      C1340   1.207       .  T
C1341      C1342   1.207       .  T
C1342      C1343   1.414       .  S
C1343      C1344   1.207       .  T
C1345      C1346   1.207       .  T
C1346      C1347   1.414       .  S
C1347      C1348   1.207       .  T
C1349      C1350   1.207       .  T
C1350      C1351   1.415       .  S
C1351      C1352   1.207       .  T
C1353      C1354   1.208       .  T
C1354      C1355   1.415       .  S
C1355      C1356   1.207       .  T
C1357      C1358   1.208       .  T
C1358      C1359   1.415       .  S
C1359      C1360   1.207       .  T
C1361      C1362   1.208       .  T
C1362      C1363   1.415       .  S
C1363      C1364   1.207       .  T
C1365      C1366   1.208       .  T
C1366      C1367   1.415       .  S
C1367      C1368   1.207       .  T
C1369      C1370   1.207       .  T
C1370      C1371   1.415       .  S
C1371      C1372   1.207       .  T
C1373      C1374   1.208       .  T
C1374      C1375   1.415       .  S
C1375      C1376   1.207       .  T
C1377      C1378   1.207       .  T
C1378      C1379   1.415       .  S
C1379      C1380   1.207       .  T
C1381      C1382   1.207       .  T
C1382      C1383   1.414       .  S
C1383      C1384   1.207       .  T
C1385      C1386   1.207       .  T
C1386      C1387   1.414       .  S
C1387      C1388   1.207       .  T
C1389      C1390   1.207       .  T
C1390      C1391   1.414       .  S
C1391      C1392   1.207       .  T
C1393      C1394   1.208       .  T
C1394      C1395   1.415       .  S
C1395      C1396   1.207       .  T
C1397      C1398   1.207       .  T
C1398      C1399   1.414       .  S
C1399      C1400   1.207       .  T
C1401      C1402   1.208       .  T
C1402      C1403   1.415       .  S
C1403      C1404   1.207       .  T
C1405      C1406   1.207       .  T
C1406      C1407   1.414       .  S
C1407      C1408   1.207       .  T
C1409      C1410   1.207       .  T
C1410      C1411   1.415       .  S
C1411      C1412   1.208       .  T
C1413      C1414   1.208       .  T
C1414      C1415   1.416       .  S
C1415      C1416   1.208       .  T
C1417      C1418   1.207       .  T
C1418      C1419   1.414       .  S
C1419      C1420   1.207       .  T
C1421      C1422   1.208       .  T
C1422      C1423   1.415       .  S
C1423      C1424   1.208       .  T
C1425      C1426   1.207       .  T
C1426      C1427   1.415       .  S
C1427      C1428   1.207       .  T
C1429      C1430   1.207       .  T
C1430      C1431   1.415       .  S
C1431      C1432   1.207       .  T
C1433      C1434   1.207       .  T
C1434      C1435   1.414       .  S
C1435      C1436   1.207       .  T
C1437      C1438   1.207       .  T
C1438      C1439   1.414       .  S
C1439      C1440   1.207       .  T
C1441      C1442   1.207       .  T
C1442      C1443   1.414       .  S
C1443      C1444   1.207       .  T
C1445      C1446   1.207       .  T
C1446      C1447   1.415       .  S
C1447      C1448   1.207       .  T
C1449      C1450   1.207       .  T
C1450      C1451   1.414       .  S
C1451      C1452   1.207       .  T
C1453      C1454   1.207       .  T
C1454      C1455   1.415       .  S
C1455      C1456   1.207       .  T
C1457      C1458   1.208       .  T
C1458      C1459   1.415       .  S
C1459      C1460   1.208       .  T
C1461      C1462   1.207       .  T
C1462      C1463   1.414       .  S
C1463      C1464   1.207       .  T
