geometry optimzed in LAMMPS
_audit_creation_date              2020-11-30 
_audit_creation_method            'lammps2cif' 
_symmetry_space_group_name_H-M    'P1' 
_symmetry_Int_Tables_number       1 
_symmetry_cell_setting            triclinic 
loop_ 
_symmetry_equiv_pos_as_xyz 
  x,y,z 
_cell_length_a                    55.4501648 
_cell_length_b                    54.67195498817348 
_cell_length_c                    54.66032758848437 
_cell_angle_alpha                 90.00527536121969 
_cell_angle_beta                  89.92914028631212 
_cell_angle_gamma                 90.23743758473377 
loop_ 
_atom_site_label 
_atom_site_type_symbol 
_atom_site_fract_x 
_atom_site_fract_y 
_atom_site_fract_z 
_atom_site_charge 
Zn1        Zn  0.51303437  0.49649715  0.97155211     1.49700
Zn2        Zn  0.52215320  0.50977424  0.02266189     1.49400
Zn3        Zn  0.46999501  0.50521372  0.00990315     1.49100
Zn4        Zn  0.50556710  0.45866725  0.01637539     1.49500
O5          O  0.50118806  0.49106980  0.00411210    -1.83400
O6          O  0.54003523  0.52351648  0.97317994    -0.74000
O7          O  0.51173238  0.54404492  0.02360999    -0.73800
O8          O  0.45405126  0.51174952  0.97700579    -0.73400
O9          O  0.55385156  0.50891725  0.00774635    -0.74000
O10         O  0.48376092  0.50351152  0.95073380    -0.73600
O11         O  0.47430353  0.53461299  0.03392806    -0.74200
O12         O  0.47137708  0.44496960  0.01746654    -0.73600
O13         O  0.52558939  0.49794423  0.05625231    -0.74400
O14         O  0.44844006  0.47769951  0.02247768    -0.73800
O15         O  0.52887107  0.45865287  0.04729084    -0.74200
O16         O  0.51755151  0.43814536  0.98841581    -0.74100
O17         O  0.52146627  0.46349258  0.95717498    -0.73900
C18         C  0.55526918  0.52452426  0.99079987     0.77900
C19         C  0.49327584  0.54789491  0.03657440     0.78400
C20         C  0.46143543  0.50651044  0.95552598     0.77300
C21         C  0.45062673  0.45504309  0.01720286     0.77700
C22         C  0.53405143  0.47702703  0.06104733     0.78800
C23         C  0.51926105  0.44179009  0.96546215     0.77900
Zn24       Zn  0.48739139  0.02876293  0.50649983     1.49700
Zn25       Zn  0.51000776  0.98019155  0.53255717     1.49400
Zn26       Zn  0.49205957  0.97977419  0.48227569     1.49100
Zn27       Zn  0.53549209  0.00499430  0.48436314     1.49500
O28         O  0.50675731  0.00015915  0.50404108    -1.83400
O29         O  0.48526722  0.03541970  0.54317236    -0.74000
O30         O  0.48952414  0.94683260  0.52926638    -0.73800
O31         O  0.47383373  0.99873172  0.45785521    -0.73400
O32         O  0.50029756  0.00209913  0.56095962    -0.74000
O33         O  0.45601622  0.02241627  0.48547802    -0.73600
O34         O  0.46955866  0.95736040  0.49577925    -0.74200
O35         O  0.53060540  0.98965290  0.44922215    -0.73600
O36         O  0.54649621  0.97991653  0.53858495    -0.74400
O37         O  0.51703822  0.95859923  0.46961186    -0.73800
O38         O  0.56352882  0.99157323  0.50350302    -0.74200
O39         O  0.54258063  0.04113148  0.48643734    -0.74100
O40         O  0.50797982  0.05845367  0.49714585    -0.73900
C41         C  0.49438670  0.02465663  0.56178155     0.77900
C42         C  0.47291621  0.94279953  0.51326713     0.78400
C43         C  0.45535534  0.01011466  0.46538497     0.77300
C44         C  0.52212753  0.96787968  0.44930163     0.77700
C45         C  0.56480080  0.98770707  0.52648370     0.78800
C46         C  0.53074334  0.05972897  0.49363779     0.77900
Zn47       Zn  0.96600867  0.50642810  0.50136473     1.49700
Zn48       Zn  0.00670047  0.46388202  0.50619054     1.49400
Zn49       Zn  0.00880847  0.50427470  0.46250574     1.49100
Zn50       Zn  0.01688527  0.51490427  0.51330130     1.49500
O51         O  0.99782948  0.49555001  0.49417809    -1.83400
O52         O  0.94791139  0.47532493  0.50833029    -0.74000
O53         O  0.01316543  0.44321952  0.47605399    -0.73800
O54         O  0.98164002  0.52012434  0.44368109    -0.73400
O55         O  0.97581262  0.44799747  0.51818603    -0.74000
O56         O  0.95051543  0.51377640  0.46825421    -0.73600
O57         O  0.01071201  0.47083390  0.44584921    -0.74200
O58         O  0.02073016  0.54667211  0.49737744    -0.73600
O59         O  0.03403355  0.46688629  0.53294865    -0.74400
O60         O  0.03875813  0.52757294  0.46712063    -0.73800
O61         O  0.04922754  0.50127753  0.51863941    -0.74200
O62         O  0.00127527  0.51808044  0.54491295    -0.74100
O63         O  0.96863363  0.53408302  0.52855578    -0.73900
C64         C  0.95435605  0.45318505  0.51158236     0.77900
C65         C  0.00991992  0.44871292  0.45357649     0.78400
C66         C  0.95916796  0.51621648  0.44669956     0.77300
C67         C  0.03858788  0.54481018  0.48313487     0.77700
C68         C  0.04993597  0.48399193  0.53390628     0.78800
C69         C  0.98515489  0.53425403  0.54508266     0.77900
Zn70       Zn  0.02139906  0.04172391  0.00419891     1.49700
Zn71       Zn  0.01519063  0.01643105  0.95824917     1.49400
Zn72       Zn  0.00823324  0.98516826  0.00798989     1.49100
Zn73       Zn  0.97029351  0.02661838  0.99601772     1.49500
O74         O  0.00284352  0.01590556  0.99151303    -1.83400
O75         O  0.03157044  0.06414239  0.97863467    -0.74000
O76         O  0.01824795  0.98148102  0.94792702    -0.73800
O77         O  0.03436197  0.99194269  0.03502177    -0.73400
O78         O  0.04832578  0.03524389  0.95767629    -0.74000
O79         O  0.04827598  0.02873117  0.02369991    -0.73600
O80         O  0.01699588  0.95941863  0.98227401    -0.74200
O81         O  0.95038306  0.99594086  0.99962091    -0.73600
O82         O  0.98667776  0.02603354  0.93714754    -0.74400
O83         O  0.97517626  0.97028558  0.01841025    -0.73800
O84         O  0.96066261  0.04172634  0.96372940    -0.74200
O85         O  0.96688588  0.04883032  0.02678163    -0.74100
O86         O  0.00493164  0.06104195  0.02742017    -0.73900
C87         C  0.05048827  0.05493034  0.97007677     0.77900
C88         C  0.01614692  0.96107972  0.95898406     0.78400
C89         C  0.04902131  0.01012578  0.03759853     0.77300
C90         C  0.95462582  0.97494748  0.00875454     0.77700
C91         C  0.96516481  0.03213382  0.94292288     0.78800
C92         C  0.98403527  0.06131049  0.03628707     0.77900
Zn93       Zn  0.48172552  0.75599268  0.21855586     1.49700
Zn94       Zn  0.49920488  0.72517399  0.26502334     1.49400
Zn95       Zn  0.52906516  0.77314604  0.24881202     1.49100
Zn96       Zn  0.48013892  0.77450256  0.26807869     1.49500
O97         O  0.49914688  0.75575011  0.24841938    -1.83400
O98         O  0.47964510  0.72107775  0.20865866    -0.74000
O99         O  0.53359760  0.71547963  0.26535461    -0.73800
O100        O  0.53790686  0.77583015  0.21335567    -0.73400
O101        O  0.48645225  0.69909625  0.24210504    -0.74000
O102        O  0.50432638  0.76829317  0.19230020    -0.73600
O103        O  0.55558209  0.74895139  0.25893399    -0.74200
O104        O  0.48549948  0.80922398  0.26147414    -0.73600
O105        O  0.48165439  0.72850879  0.29850416    -0.74400
O106        O  0.52430713  0.80566062  0.26949762    -0.73800
O107        O  0.48843820  0.76813386  0.30219970    -0.74200
O108        O  0.44605980  0.76685763  0.26231360    -0.74100
O109        O  0.44946437  0.77473595  0.22287252    -0.73900
C110        C  0.48416441  0.70071204  0.21894219     0.77900
C111        C  0.55378736  0.72566639  0.26080319     0.78400
C112        C  0.52721757  0.77060751  0.19335396     0.77300
C113        C  0.50433286  0.81741507  0.27160252     0.77700
C114        C  0.47977692  0.74848150  0.31062557     0.78800
C115        C  0.43772851  0.77634806  0.24301784     0.77900
Zn116      Zn  0.50178884  0.29417424  0.71979123     1.49700
Zn117      Zn  0.50903681  0.24637120  0.69805241     1.49400
Zn118      Zn  0.51000773  0.25245406  0.75738784     1.49100
Zn119      Zn  0.46258207  0.25012284  0.72535963     1.49500
O120        O  0.49513498  0.26038874  0.72652489    -1.83400
O121        O  0.53545415  0.29525166  0.70323498    -0.74000
O122        O  0.53654540  0.22626870  0.70938261    -0.73800
O123        O  0.51678559  0.28437369  0.77659323    -0.73400
O124        O  0.51909091  0.27213686  0.67574450    -0.74000
O125        O  0.49982816  0.31170666  0.75198920    -0.73600
O126        O  0.53805462  0.22874104  0.75000237    -0.74200
O127        O  0.45213517  0.24805798  0.76057714    -0.73600
O128        O  0.48763591  0.22566766  0.67875890    -0.74400
O129        O  0.48513875  0.23765386  0.78054870    -0.73800
O130        O  0.46209756  0.21573374  0.70789524    -0.74200
O131        O  0.44462975  0.28053104  0.71443554    -0.74100
O132        O  0.47339015  0.30534032  0.70032246    -0.73900
C133        C  0.53789829  0.28129631  0.68474366     0.77900
C134        C  0.54585095  0.21999913  0.72967470     0.78400
C135        C  0.50664323  0.30510383  0.77314779     0.77300
C136        C  0.46283682  0.24324483  0.78058554     0.77700
C137        C  0.47514032  0.20963926  0.68948791     0.78800
C138        C  0.45213759  0.30199300  0.70869017     0.77900
Zn139      Zn  0.24997438  0.49167141  0.74009724     1.49700
Zn140      Zn  0.24830173  0.48087023  0.79854641     1.49400
Zn141      Zn  0.24278206  0.53114243  0.78141150     1.49100
Zn142      Zn  0.20383363  0.48530852  0.77340829     1.49500
O143        O  0.23597719  0.49857216  0.77166623    -1.83400
O144        O  0.27797064  0.46670051  0.74601386    -0.74000
O145        O  0.26802030  0.49830772  0.82225794    -0.73800
O146        O  0.24332485  0.55050468  0.75039706    -0.73400
O147        O  0.26957882  0.45630434  0.78434518    -0.74000
O148        O  0.25896297  0.52437843  0.72387733    -0.73600
O149        O  0.27672159  0.53029185  0.79947666    -0.74200
O150        O  0.18511853  0.51150991  0.79106806    -0.73600
O151        O  0.22288923  0.46580577  0.81783215    -0.74400
O152        O  0.21120052  0.54148242  0.79742292    -0.73800
O153        O  0.20630941  0.44926922  0.78634464    -0.74200
O154        O  0.19101218  0.48603351  0.73986832    -0.74100
O155        O  0.22293191  0.48130564  0.71616208    -0.73900
C156        C  0.28212092  0.45369336  0.76517584     0.77900
C157        C  0.28291267  0.51439880  0.81555944     0.78400
C158        C  0.24991355  0.54531714  0.72873876     0.77300
C159        C  0.19088338  0.53411493  0.78886129     0.77700
C160        C  0.21798854  0.44663294  0.80618455     0.78800
C161        C  0.20015244  0.48417360  0.71869276     0.77900
Zn162      Zn  0.39704742  0.35324272  0.89761316     1.49700
Zn163      Zn  0.40325432  0.38914658  0.85131439     1.49400
Zn164      Zn  0.36509493  0.34376257  0.84766394     1.49100
Zn165      Zn  0.35328978  0.39117877  0.88299253     1.49500
O166        O  0.37943503  0.36923925  0.87003236    -1.83400
O167        O  0.43381248  0.35931785  0.89431798    -0.74000
O168        O  0.39732428  0.38441962  0.81452728    -0.73800
O169        O  0.37806950  0.30839429  0.85731442    -0.73400
O170        O  0.43895042  0.38021105  0.85976373    -0.74000
O171        O  0.39391720  0.31544873  0.89417224    -0.73600
O172        O  0.37109752  0.35368983  0.81063111    -0.74200
O173        O  0.31878894  0.37924703  0.86992702    -0.73600
O174        O  0.39719722  0.42581213  0.85816203    -0.74400
O175        O  0.32766061  0.34432470  0.85098860    -0.73800
O176        O  0.36130352  0.42866770  0.87623610    -0.74200
O177        O  0.35369381  0.38892213  0.92068023    -0.74100
O178        O  0.38465207  0.36564870  0.93195455    -0.73900
C179        C  0.44773383  0.36856262  0.87799635     0.77900
C180        C  0.38380615  0.37093603  0.80110716     0.78400
C181        C  0.38788851  0.30049601  0.87712035     0.77300
C182        C  0.31193326  0.35973172  0.85862377     0.77700
C183        C  0.38029482  0.43889162  0.86734005     0.78800
C184        C  0.36683911  0.37952082  0.93747397     0.77900
N185        N  0.28631406  0.35496409  0.85340800    -0.02700
C186        C  0.27800756  0.33124554  0.85521623    -0.00100
C187        C  0.26771725  0.32336960  0.83379475    -0.23000
C188        C  0.26652755  0.34306663  0.81908719    -0.23200
C189        C  0.27693231  0.36267906  0.83138876    -0.00200
H190        H  0.25770071  0.30653023  0.83107498     0.13500
H191        H  0.25496955  0.34370978  0.80320005     0.13600
N192        N  0.38308102  0.46549330  0.86705299    -0.02700
C193        C  0.40533877  0.47515660  0.87259867    -0.00100
C194        C  0.41373006  0.48977757  0.85387368    -0.23000
C195        C  0.39525168  0.49217531  0.83779825    -0.23200
C196        C  0.37625652  0.47813436  0.84649393    -0.00200
H197        H  0.42963342  0.50130885  0.85432432     0.13500
H198        H  0.39455863  0.50579031  0.82347860     0.13600
N199        N  0.47344593  0.36359118  0.87938784    -0.02700
C200        C  0.48514186  0.36382394  0.90142886    -0.00100
C201        C  0.50022211  0.34389552  0.90357742    -0.23000
C202        C  0.49889616  0.33142002  0.88210243    -0.23200
C203        C  0.48339536  0.34422021  0.86707427    -0.00200
H204        H  0.51313650  0.34053120  0.91799236     0.13500
H205        H  0.51066464  0.31661168  0.87671934     0.13600
N206        N  0.38112365  0.37769330  0.77546666    -0.02700
C207        C  0.37049499  0.39976828  0.77018682    -0.00100
C208        C  0.38502167  0.41413125  0.75556248    -0.23000
C209        C  0.40390925  0.40005269  0.74896063    -0.23200
C210        C  0.40106314  0.37779211  0.76062475    -0.00200
H211        H  0.38034836  0.43150742  0.74739908     0.13500
H212        H  0.41678399  0.40455283  0.73475863     0.13600
N213        N  0.39303147  0.27449356  0.88050702    -0.02700
C214        C  0.38871525  0.26180099  0.90174744    -0.00100
C215        C  0.40461171  0.24266439  0.90453384    -0.23000
C216        C  0.41862573  0.24232676  0.88428267    -0.23200
C217        C  0.41167595  0.26186007  0.86995901    -0.00200
H218        H  0.40401602  0.22856919  0.91849515     0.13500
H219        H  0.43204149  0.22866221  0.87987356     0.13600
N220        N  0.36118571  0.38532320  0.96285488    -0.02700
C221        C  0.36923530  0.40663889  0.97339469    -0.00100
C222        C  0.35084391  0.41822178  0.98594403    -0.23000
C223        C  0.33092301  0.40399002  0.98385187    -0.23200
C224        C  0.33774042  0.38356923  0.97085493    -0.00200
H225        H  0.35230015  0.43445433  0.99714270     0.13500
H226        H  0.31431046  0.40644513  0.99388813     0.13600
Zn227      Zn  0.24441901  0.26472335  0.01834353     1.49700
Zn228      Zn  0.26780394  0.26455274  0.97154154     1.49400
Zn229      Zn  0.27049065  0.21707876  0.99560276     1.49100
Zn230      Zn  0.22194683  0.23776833  0.97040180     1.49500
O231        O  0.24966476  0.24424086  0.99041446    -1.83400
O232        O  0.25981111  0.29984935  0.01356957    -0.74000
O233        O  0.28896238  0.24659451  0.95010851    -0.73800
O234        O  0.26822516  0.21142482  0.03180229    -0.73400
O235        O  0.28907608  0.28490971  0.99095068    -0.74000
O236        O  0.25540821  0.24614811  0.04839728    -0.73600
O237        O  0.30456925  0.22455850  0.98003931    -0.74200
O238        O  0.21814431  0.20112094  0.97190527    -0.73600
O239        O  0.24689842  0.28540913  0.95217645    -0.74400
O240        O  0.25328271  0.18612252  0.98432222    -0.73800
O241        O  0.22672195  0.25466381  0.93589955    -0.74200
O242        O  0.19213387  0.24700783  0.99005178    -0.74100
O243        O  0.20876517  0.26266639  0.02369334    -0.73900
C244        C  0.27986300  0.30263940  0.00219876     0.77900
C245        C  0.30691524  0.23637338  0.95987823     0.78400
C246        C  0.26018556  0.22338898  0.05008962     0.77300
C247        C  0.23080040  0.18340211  0.97993974     0.77700
C248        C  0.23721582  0.27554205  0.93379034     0.78800
C249        C  0.19074094  0.25338093  0.01250074     0.77900
Zn250      Zn  0.72143011  0.45556623  0.23720533     1.49700
Zn251      Zn  0.73541642  0.50048616  0.27557069     1.49400
Zn252      Zn  0.76750323  0.49157527  0.22760586     1.49100
Zn253      Zn  0.71687392  0.50912257  0.23002708     1.49500
O254        O  0.73691815  0.48658654  0.24353189    -1.83400
O255        O  0.71500605  0.44215825  0.27166240    -0.74000
O256        O  0.77013833  0.50175736  0.28753489    -0.73800
O257        O  0.77946869  0.45685186  0.22074751    -0.73400
O258        O  0.71847419  0.47472319  0.29561600    -0.74000
O259        O  0.74794333  0.43239335  0.22883701    -0.73600
O260        O  0.79256723  0.50242091  0.25377292    -0.74200
O261        O  0.73641069  0.53723386  0.22055646    -0.73600
O262        O  0.71785745  0.53456175  0.27499944    -0.74400
O263        O  0.76092152  0.51561287  0.19775563    -0.73800
O264        O  0.69035670  0.51933461  0.25104914    -0.74200
O265        O  0.70288569  0.49689656  0.20101507    -0.74100
O266        O  0.69616906  0.45754033  0.20774734    -0.73900
C267        C  0.71989703  0.45164845  0.29256300     0.77900
C268        C  0.79082370  0.50169138  0.27716799     0.78400
C269        C  0.77047181  0.43587272  0.22605623     0.77300
C270        C  0.74679209  0.53404072  0.20022456     0.77700
C271        C  0.69817496  0.53729156  0.26313302     0.78800
C272        C  0.69388997  0.47680115  0.19446044     0.77900
Zn273      Zn  0.28564388  0.74293474  0.52112424     1.49700
Zn274      Zn  0.25659257  0.72530315  0.47284440     1.49400
Zn275      Zn  0.23731704  0.72340611  0.52290443     1.49100
Zn276      Zn  0.24019981  0.77396396  0.50319310     1.49500
O277        O  0.25612596  0.74312758  0.50330780    -1.83400
O278        O  0.30994821  0.73935317  0.49412234    -0.74000
O279        O  0.23192391  0.69597259  0.47555761    -0.73800
O280        O  0.24685296  0.72769390  0.55700959    -0.73400
O281        O  0.29183999  0.71904096  0.46391570    -0.74000
O282        O  0.28361860  0.71588129  0.54829940    -0.73600
O283        O  0.24121686  0.68889959  0.51395420    -0.74200
O284        O  0.20956149  0.77128452  0.52597538    -0.73600
O285        O  0.24916253  0.74997055  0.44661304    -0.74400
O286        O  0.20342468  0.73195375  0.51925245    -0.73800
O287        O  0.23697016  0.78305752  0.46726961    -0.74200
O288        O  0.26564640  0.79895149  0.51333516    -0.74100
O289        O  0.29294711  0.77727588  0.53334063    -0.73900
C290        C  0.30985740  0.73113693  0.47227206     0.77900
C291        C  0.22890073  0.68360993  0.49528518     0.78400
C292        C  0.26462171  0.71412607  0.56159108     0.77300
C293        C  0.19726562  0.75162048  0.52950951     0.77700
C294        C  0.24478653  0.77280987  0.44772699     0.78800
C295        C  0.28653726  0.79713371  0.52296504     0.77900
Zn296      Zn  0.60219346  0.64898376  0.14621120     1.49700
Zn297      Zn  0.64409600  0.60696155  0.14441886     1.49400
Zn298      Zn  0.60068097  0.60834130  0.10187831     1.49100
Zn299      Zn  0.64356244  0.64984939  0.10141697     1.49500
O300        O  0.62278570  0.62855300  0.12355472    -1.83400
O301        O  0.61463901  0.64659321  0.18309294    -0.74000
O302        O  0.63623555  0.56974160  0.13637691    -0.73800
O303        O  0.56400468  0.61250929  0.11184353    -0.73400
O304        O  0.64076646  0.61590904  0.18301945    -0.74000
O305        O  0.56569508  0.63748861  0.14393941    -0.73600
O306        O  0.60832317  0.57202347  0.10719542    -0.74200
O307        O  0.63894342  0.63951854  0.06405901    -0.73600
O308        O  0.68051441  0.61379868  0.13492745    -0.74400
O309        O  0.60762142  0.61395525  0.06402255    -0.73800
O310        O  0.68084008  0.64682937  0.11129601    -0.74200
O311        O  0.63138362  0.68624718  0.10468466    -0.74100
O312        O  0.60365202  0.68552893  0.13429081    -0.73900
C313        C  0.62949267  0.63281844  0.19479299     0.77900
C314        C  0.62223772  0.55920359  0.12071848     0.78400
C315        C  0.55335731  0.62375256  0.12944765     0.77300
C316        C  0.62400234  0.62582371  0.05224428     0.77700
C317        C  0.69233481  0.63085781  0.12406351     0.78800
C318        C  0.61546978  0.69729123  0.11777433     0.77900
N319        N  0.62639917  0.62294506  0.02549543    -0.02700
C320        C  0.64058727  0.63617324  0.00954344    -0.00100
C321        C  0.64119927  0.62597320  0.98649324    -0.23000
C322        C  0.62694407  0.60607111  0.98716797    -0.23200
C323        C  0.61773331  0.60455402  0.01056420    -0.00200
H324        H  0.65069502  0.63289379  0.97059841     0.13500
H325        H  0.62281599  0.59419683  0.97182614     0.13600
N326        N  0.62365490  0.53269263  0.11651690    -0.02700
C327        C  0.61385700  0.52353328  0.09533799    -0.00100
C328        C  0.63213322  0.51999619  0.07852380    -0.23000
C329        C  0.65286554  0.51873792  0.09189212    -0.23200
C330        C  0.64649040  0.52383536  0.11589538    -0.00200
H331        H  0.63010934  0.51165404  0.06065034     0.13500
H332        H  0.66886047  0.50939666  0.08570211     0.13600
N333        N  0.71851958  0.63344989  0.12846684    -0.02700
C334        C  0.73186685  0.65440445  0.12498805    -0.00100
C335        C  0.75197720  0.65471670  0.13995203    -0.23000
C336        C  0.75246117  0.63316314  0.15199394    -0.23200
C337        C  0.73263791  0.62003871  0.14429398    -0.00200
H338        H  0.76660818  0.66796866  0.13964116     0.13500
H339        H  0.76688483  0.62676783  0.16374081     0.13600
N340        N  0.52738814  0.61991137  0.13389354    -0.02700
C341        C  0.51165179  0.60391457  0.12270176    -0.00100
C342        C  0.48992819  0.60257950  0.13505817    -0.23000
C343        C  0.49221610  0.61610991  0.15537098    -0.23200
C344        C  0.51420621  0.62788684  0.15364710    -0.00200
H345        H  0.47394218  0.59259678  0.12976188     0.13500
H346        H  0.47781640  0.61997478  0.16817096     0.13600
N347        N  0.60919032  0.72277780  0.11227869    -0.02700
C348        C  0.61641303  0.73526136  0.09171274    -0.00100
C349        C  0.59873764  0.75152398  0.08439634    -0.23000
C350        C  0.58034839  0.74967319  0.10038286    -0.23200
C351        C  0.58743136  0.73325489  0.11800831    -0.00200
H352        H  0.60021035  0.76556137  0.07043371     0.13500
H353        H  0.56507344  0.76204173  0.10136629     0.13600
N354        N  0.63482218  0.63799648  0.22093545    -0.02700
C355        C  0.62714363  0.65837332  0.23370643    -0.00100
C356        C  0.64043748  0.66223996  0.25458074    -0.23000
C357        C  0.65593767  0.64357559  0.25639367    -0.23200
C358        C  0.65287489  0.62885378  0.23606261    -0.00200
H359        H  0.63722013  0.67596475  0.26855588     0.13500
H360        H  0.66724893  0.64000783  0.27217486     0.13600
Zn361      Zn  0.72833437  0.74144091  0.02336166     1.49700
Zn362      Zn  0.77866116  0.75265563  0.01275713     1.49400
Zn363      Zn  0.73827394  0.75132064  0.97078467     1.49100
Zn364      Zn  0.73708297  0.79382585  0.01255048     1.49500
O365        O  0.74664304  0.76131691  0.00333712    -1.83400
O366        O  0.74533940  0.71102726  0.02956578    -0.74000
O367        O  0.79734409  0.74322456  0.98255017    -0.73800
O368        O  0.71445999  0.72143015  0.97257957    -0.73400
O369        O  0.77849843  0.72895242  0.04257534    -0.74000
O370        O  0.69801066  0.73235866  0.00780671    -0.73600
O371        O  0.76989350  0.74509342  0.95333160    -0.74200
O372        O  0.73301072  0.81129863  0.97984339    -0.73600
O373        O  0.79483589  0.78423177  0.01838793    -0.74400
O374        O  0.72732735  0.78166202  0.95213971    -0.73800
O375        O  0.76678033  0.81192834  0.02559898    -0.74200
O376        O  0.70676264  0.79039137  0.03575733    -0.74100
O377        O  0.72126157  0.75804645  0.05449766    -0.73900
C378        C  0.76235206  0.71232554  0.04476043     0.77900
C379        C  0.79192010  0.74508794  0.95995088     0.78400
C380        C  0.69875427  0.71822653  0.98954799     0.77300
C381        C  0.73163091  0.80401588  0.95764622     0.77700
C382        C  0.78865765  0.80642944  0.02073326     0.78800
C383        C  0.70456223  0.77346592  0.05193875     0.77900
Zn384      Zn  0.14375267  0.59806759  0.65019634     1.49700
Zn385      Zn  0.10222669  0.64088544  0.64908803     1.49400
Zn386      Zn  0.14575305  0.64008410  0.60654589     1.49100
Zn387      Zn  0.10275763  0.59787293  0.60563632     1.49500
O388        O  0.12343168  0.61924545  0.62791439    -1.83400
O389        O  0.13484089  0.60270916  0.68765553    -0.74000
O390        O  0.11069728  0.67808197  0.64116912    -0.73800
O391        O  0.18222552  0.63646181  0.61701225    -0.73400
O392        O  0.10800179  0.63285195  0.68737589    -0.74000
O393        O  0.18006833  0.60846585  0.64643353    -0.73600
O394        O  0.13731621  0.67716556  0.61057922    -0.74200
O395        O  0.11265591  0.60275881  0.56836459    -0.73600
O396        O  0.06516697  0.63532121  0.63959853    -0.74400
O397        O  0.14252029  0.63004254  0.56929504    -0.73800
O398        O  0.06548888  0.60677432  0.61045949    -0.74200
O399        O  0.10943793  0.56045644  0.61329049    -0.74100
O400        O  0.13914448  0.56072746  0.64073657    -0.73900
C401        C  0.12097888  0.61738364  0.69939637     0.77900
C402        C  0.12393190  0.68935066  0.62532184     0.78400
C403        C  0.19262436  0.62327359  0.63325903     0.77300
C404        C  0.12883700  0.61541516  0.55712663     0.77700
C405        C  0.05368596  0.62173718  0.62420156     0.78800
C406        C  0.12472106  0.54882468  0.62659200     0.77900
N407        N  0.02713525  0.62337845  0.62218509    -0.02700
C408        C  0.01182892  0.61036355  0.60711972    -0.00100
C409        C  0.98796368  0.61641677  0.61064354    -0.23000
C410        C  0.98751045  0.63365743  0.62803811    -0.23200
C411        C  0.01115135  0.63831311  0.63451555    -0.00200
H412        H  0.97241118  0.60844045  0.60181780     0.13500
H413        H  0.97148724  0.64202523  0.63543924     0.13600
N414        N  0.12360750  0.71618768  0.62390907    -0.02700
C415        C  0.11173697  0.73235210  0.63881351    -0.00100
C416        C  0.11480679  0.75626713  0.63135804    -0.23000
C417        C  0.12877529  0.75571066  0.61131189    -0.23200
C418        C  0.13446241  0.73151632  0.60719912    -0.00200
H419        H  0.10677925  0.77247328  0.63938977     0.13500
H420        H  0.13492937  0.77147865  0.60095183     0.13600
N421        N  0.13223669  0.61267611  0.53052991    -0.02700
C422        C  0.11966570  0.59839016  0.51408671    -0.00100
C423        C  0.12935553  0.59972221  0.49084926    -0.23000
C424        C  0.14861710  0.61454168  0.49213046    -0.23200
C425        C  0.15009592  0.62253368  0.51598961    -0.00200
H426        H  0.12271970  0.59076951  0.47445003     0.13500
H427        H  0.16017329  0.61978287  0.47695925     0.13600
N428        N  0.12008622  0.61658935  0.72644710    -0.02700
C429        C  0.10839291  0.63226988  0.74215938    -0.00100
C430        C  0.11197687  0.62642811  0.76640394    -0.23000
C431        C  0.12561975  0.60636094  0.76675844    -0.23200
C432        C  0.13059927  0.60043569  0.74271360    -0.00200
H433        H  0.10499129  0.63595262  0.78231161     0.13500
H434        H  0.13203541  0.59712115  0.78305270     0.13600
N435        N  0.12545609  0.52190559  0.62592699    -0.02700
C436        C  0.11061180  0.50591525  0.61358710    -0.00100
C437        C  0.11550006  0.48185697  0.61920601    -0.23000
C438        C  0.13422176  0.48206613  0.63472295    -0.23200
C439        C  0.14024843  0.50626698  0.63860419    -0.00200
H440        H  0.10691629  0.46569209  0.61161362     0.13500
H441        H  0.14248036  0.46611756  0.64298560     0.13600
N442        N  0.21890542  0.62431843  0.63657059    -0.02700
C443        C  0.23215677  0.61081931  0.65278582    -0.00100
C444        C  0.25662884  0.61373078  0.64945157    -0.23000
C445        C  0.25940703  0.63019365  0.63139111    -0.23200
C446        C  0.23656408  0.63651419  0.62360593    -0.00200
H447        H  0.27092363  0.60543859  0.65994066     0.13500
H448        H  0.27638251  0.63735970  0.62483504     0.13600
Zn449      Zn  0.97066345  0.74216964  0.74500072     1.49700
Zn450      Zn  0.01990506  0.73268696  0.73342730     1.49400
Zn451      Zn  0.01117229  0.78416815  0.74096132     1.49100
Zn452      Zn  0.01360358  0.74539411  0.78524254     1.49500
O453        O  0.00233570  0.75266516  0.75321832    -1.83400
O454        O  0.97277935  0.71705856  0.71537825    -0.74000
O455        O  0.02075319  0.74736525  0.70100927    -0.73800
O456        O  0.98100015  0.80028320  0.72775751    -0.73400
O457        O  0.00538959  0.70022205  0.73044576    -0.74000
O458        O  0.95298579  0.77452217  0.74120442    -0.73600
O459        O  0.03914622  0.77976406  0.71556065    -0.74200
O460        O  0.02344497  0.77718896  0.80181555    -0.73600
O461        O  0.05245514  0.72945760  0.74651471    -0.74400
O462        O  0.01708942  0.80406542  0.77166387    -0.73800
O463        O  0.03886752  0.71711953  0.78245038    -0.74200
O464        O  0.98299957  0.73918200  0.80389014    -0.74100
O465        O  0.95555427  0.72927256  0.77615281    -0.73900
C466        C  0.98909735  0.70044326  0.71433096     0.77900
C467        C  0.03812391  0.76226180  0.69998773     0.78400
C468        C  0.95981316  0.79628024  0.73603730     0.77300
C469        C  0.01915483  0.79889167  0.79434918     0.77700
C470        C  0.05346072  0.71479075  0.76434097     0.78800
C471        C  0.96103649  0.73572643  0.79790852     0.77900
Zn472      Zn  0.89695859  0.86167864  0.89939576     1.49700
Zn473      Zn  0.89775520  0.90649787  0.85869662     1.49400
Zn474      Zn  0.86345420  0.85963863  0.85012467     1.49100
Zn475      Zn  0.85091650  0.89995856  0.89404790     1.49500
O476        O  0.87706933  0.88190348  0.87586474    -1.83400
O477        O  0.93424107  0.86652932  0.89147641    -0.74000
O478        O  0.89360913  0.90498334  0.82090137    -0.73800
O479        O  0.87128859  0.82315035  0.85820875    -0.73400
O480        O  0.93313466  0.89683189  0.86419876    -0.74000
O481        O  0.88858700  0.82394184  0.89497855    -0.73600
O482        O  0.87577804  0.86903357  0.81456834    -0.74200
O483        O  0.81644522  0.88671650  0.88219358    -0.73600
O484        O  0.89064218  0.94251273  0.87054260    -0.74400
O485        O  0.82602337  0.86162490  0.85147249    -0.73800
O486        O  0.85470127  0.93810241  0.88830790    -0.74200
O487        O  0.85571406  0.89526968  0.93223605    -0.74100
O488        O  0.88904568  0.87281656  0.93577940    -0.73900
C489        C  0.94511840  0.88124980  0.87677143     0.77900
C490        C  0.88627261  0.88829790  0.80622037     0.78400
C491        C  0.87957115  0.81187069  0.87695772     0.77300
C492        C  0.81005275  0.87186514  0.86503287     0.77700
C493        C  0.87193021  0.95195126  0.88059892     0.78800
C494        C  0.87199256  0.88533198  0.94565954     0.77900
N495        N  0.87052923  0.88740033  0.97238440    -0.02700
C496        C  0.85580642  0.87425133  0.98775988    -0.00100
C497        C  0.86025466  0.87945564  0.01201318    -0.23000
C498        C  0.87807519  0.89620550  0.01246652    -0.23200
C499        C  0.88394430  0.90138929  0.98845721    -0.00200
H500        H  0.85126403  0.87158094  0.02785958     0.13500
H501        H  0.88558369  0.90465156  0.02875578     0.13600
N502        N  0.89006859  0.89149322  0.77994529    -0.02700
C503        C  0.88452291  0.91167563  0.76616551    -0.00100
C504        C  0.89332136  0.90957941  0.74264072    -0.23000
C505        C  0.90447370  0.88769340  0.74119734    -0.23200
C506        C  0.90263305  0.87696384  0.76396921    -0.00200
H507        H  0.89035668  0.92206930  0.72755800     0.13500
H508        H  0.91337221  0.88026687  0.72518217     0.13600
N509        N  0.87899670  0.78511825  0.87728929    -0.02700
C510        C  0.88978581  0.76967689  0.86086834    -0.00100
C511        C  0.88282737  0.74568228  0.86443506    -0.23000
C512        C  0.86724272  0.74557532  0.88332893    -0.23200
C513        C  0.86504203  0.76946268  0.89110897    -0.00200
H514        H  0.88902583  0.72976172  0.85443108     0.13500
H515        H  0.85817323  0.72959497  0.89082046     0.13600
N516        N  0.78466245  0.86513115  0.86150855    -0.02700
C517        C  0.77575108  0.86357522  0.83809632    -0.00100
C518        C  0.76610209  0.84051073  0.83402605    -0.23000
C519        C  0.76713916  0.82816151  0.85551385    -0.23200
C520        C  0.77612897  0.84430936  0.87264048    -0.00200
H521        H  0.75508922  0.83475872  0.81875231     0.13500
H522        H  0.75727600  0.81140238  0.85936284     0.13600
N523        N  0.97137123  0.88154844  0.87464231    -0.02700
C524        C  0.98146806  0.87969007  0.85167041    -0.00100
C525        C  0.99205750  0.90157132  0.84472428    -0.23000
C526        C  0.99308039  0.91565397  0.86521788    -0.23200
C527        C  0.98179464  0.90239636  0.88337550    -0.00200
H528        H  0.00227808  0.90490120  0.82814526     0.13500
H529        H  0.00332635  0.93239792  0.86740839     0.13600
N530        N  0.86988544  0.97857103  0.88302495    -0.02700
C531        C  0.84953774  0.99226193  0.87956351    -0.00100
C532        C  0.85350751  0.01654308  0.88527724    -0.23000
C533        C  0.87706399  0.01877428  0.89087909    -0.23200
C534        C  0.88683593  0.99557542  0.89004510    -0.00200
H535        H  0.84106448  0.03159090  0.88283552     0.13500
H536        H  0.88603504  0.03549401  0.89653684     0.13600
Zn537      Zn  0.60741045  0.14921077  0.65043916     1.49700
Zn538      Zn  0.65012918  0.10753794  0.64891993     1.49400
Zn539      Zn  0.60755320  0.10769314  0.60767843     1.49100
Zn540      Zn  0.64911253  0.15075091  0.60779184     1.49500
O541        O  0.62842356  0.12890572  0.62882573    -1.83400
O542        O  0.61661229  0.14061260  0.68622129    -0.74000
O543        O  0.65005573  0.07170726  0.63348070    -0.73800
O544        O  0.57249841  0.10630672  0.62245621    -0.73400
O545        O  0.64038116  0.10809611  0.68696366    -0.74000
O546        O  0.56962887  0.13860791  0.64694208    -0.73600
O547        O  0.62262103  0.07247045  0.60398906    -0.74200
O548        O  0.63428485  0.15163726  0.57236492    -0.73600
O549        O  0.68578093  0.11991702  0.64459783    -0.74400
O550        O  0.60537046  0.12326857  0.57308901    -0.73800
O551        O  0.68543122  0.13813914  0.60839250    -0.74200
O552        O  0.64777505  0.18686559  0.62088627    -0.74100
O553        O  0.61612684  0.18706326  0.64609661    -0.73900
C554        C  0.62732729  0.12383845  0.69836478     0.77900
C555        C  0.63942571  0.06114864  0.61547086     0.78400
C556        C  0.55980045  0.11962905  0.63694459     0.77300
C557        C  0.61670302  0.14039128  0.56186023     0.77700
C558        C  0.69709451  0.12721726  0.62555503     0.78800
C559        C  0.63341298  0.19855352  0.63511077     0.77900
N560        N  0.64807648  0.03732889  0.60640005    -0.02700
C561        C  0.64272094  0.02834625  0.58345719    -0.00100
C562        C  0.66159045  0.01503549  0.57406891    -0.23000
C563        C  0.67828794  0.01340860  0.59190688    -0.23200
C564        C  0.67014632  0.02686302  0.61168611    -0.00200
H565        H  0.66149741  0.00432442  0.55734969     0.13500
H566        H  0.69387564  0.00155526  0.59130375     0.13600
N567        N  0.60789033  0.14879905  0.53807726    -0.02700
C568        C  0.58639632  0.14207019  0.52748661    -0.00100
C569        C  0.57746766  0.16049204  0.51292764    -0.23000
C570        C  0.59410184  0.17864306  0.51298416    -0.23200
C571        C  0.61267991  0.17129216  0.52809915    -0.00200
H572        H  0.56184404  0.15945041  0.50101420     0.13500
H573        H  0.59379362  0.19468051  0.50130842     0.13600
N574        N  0.62251568  0.12202478  0.72484870    -0.02700
C575        C  0.60764641  0.13700349  0.73826039    -0.00100
C576        C  0.60246486  0.12748524  0.76098195    -0.23000
C577        C  0.61482113  0.10636899  0.76272276    -0.23200
C578        C  0.62716021  0.10331601  0.74094176    -0.00200
H579        H  0.59129822  0.13557199  0.77507853     0.13500
H580        H  0.61610595  0.09505106  0.77897282     0.13600
N581        N  0.53501103  0.11141683  0.64341398    -0.02700
C582        C  0.52889554  0.08723509  0.63991141    -0.00100
C583        C  0.51650674  0.07794094  0.65955250    -0.23000
C584        C  0.51120445  0.09715097  0.67402913    -0.23200
C585        C  0.52205836  0.11788921  0.66419037    -0.00200
H586        H  0.50745503  0.06035375  0.66038724     0.13500
H587        H  0.49696077  0.09636038  0.68733867     0.13600
N588        N  0.72252568  0.12032750  0.62231487    -0.02700
C589        C  0.73385822  0.11931702  0.59988690    -0.00100
C590        C  0.75133544  0.10144313  0.59967660    -0.23000
C591        C  0.75200506  0.09159749  0.62244667    -0.23200
C592        C  0.73499485  0.10353523  0.63644117    -0.00200
H593        H  0.76414505  0.09784694  0.58518294     0.13500
H594        H  0.76528422  0.07862842  0.62891777     0.13600
N595        N  0.63789559  0.22461259  0.64029544    -0.02700
C596        C  0.65821149  0.23806991  0.63457409    -0.00100
C597        C  0.66085900  0.25794417  0.64977626    -0.23000
C598        C  0.64146574  0.25816162  0.66460399    -0.40000
C599        C  0.62725782  0.23819227  0.65848151    -0.00200
H600        H  0.67440519  0.27225239  0.64844982     0.13500
H601        H  0.63681699  0.27304126  0.67680981     0.13600
Zn602      Zn  0.76831571  0.98769939  0.77891948     1.49700
Zn603      Zn  0.74912517  0.03654748  0.77477946     1.49400
Zn604      Zn  0.76957898  0.00919337  0.72778774     1.49100
Zn605      Zn  0.72067475  0.98838006  0.75367526     1.49500
O606        O  0.75071084  0.00588485  0.75695630    -1.83400
O607        O  0.76044830  0.99921873  0.81187237    -0.74000
O608        O  0.75285741  0.06287840  0.74878994    -0.73800
O609        O  0.80015547  0.98689111  0.73122900    -0.73400
O610        O  0.77389043  0.03583503  0.80322389    -0.74000
O611        O  0.80307014  0.98930340  0.77170099    -0.73600
O612        O  0.77646905  0.04525811  0.72098567    -0.74200
O613        O  0.71359818  0.98542760  0.71691698    -0.73600
O614        O  0.71505416  0.04108077  0.78650907    -0.74400
O615        O  0.74591670  0.00242250  0.70017064    -0.73800
O616        O  0.69603541  0.01419058  0.76284419    -0.74200
O617        O  0.72108259  0.95497851  0.77414235    -0.74100
O618        O  0.76072121  0.95340140  0.77895977    -0.73900
C619        C  0.77421840  0.01684782  0.81687392     0.77900
C620        C  0.76287405  0.06281888  0.72777269     0.78400
C621        C  0.81136327  0.98228123  0.75127785     0.77300
C622        C  0.72411866  0.99497776  0.69837741     0.77700
C623        C  0.69668200  0.03473287  0.77403699     0.78800
C624        C  0.74018438  0.94374545  0.78127511     0.77900
Zn625      Zn  0.73352251  0.25238446  0.47063917     1.49700
Zn626      Zn  0.75515543  0.28006542  0.51762356     1.49400
Zn627      Zn  0.73400222  0.23127563  0.52049124     1.49100
Zn628      Zn  0.78137409  0.23103989  0.49644813     1.49500
O629        O  0.75268434  0.24998240  0.49979609    -1.83400
O630        O  0.72668995  0.28828186  0.46363337    -0.74000
O631        O  0.73249692  0.27804859  0.54881147    -0.73800
O632        O  0.70059147  0.23862437  0.51387039    -0.73400
O633        O  0.74858846  0.30658870  0.49223143    -0.74000
O634        O  0.70293426  0.22959887  0.47460062    -0.73600
O635        O  0.73964439  0.23901914  0.55512553    -0.74200
O636        O  0.77848228  0.19976982  0.51965295    -0.73600
O637        O  0.79073790  0.28622080  0.52373442    -0.74400
O638        O  0.73906813  0.19613160  0.51549570    -0.73800
O639        O  0.80787331  0.25592584  0.50288994    -0.74200
O640        O  0.78744854  0.22582857  0.45981350    -0.74100
O641        O  0.75718561  0.24648925  0.44311279    -0.73900
C642        C  0.73882752  0.30673784  0.47108186     0.77900
C643        C  0.72958615  0.25864070  0.56178012     0.78400
C644        C  0.69176861  0.22845796  0.49516940     0.77300
C645        C  0.75867287  0.18818269  0.52406686     0.77700
C646        C  0.80835420  0.27773423  0.51128676     0.78800
C647        C  0.77855186  0.23798973  0.44197197     0.77900
Zn648      Zn  0.39674754  0.89709055  0.40237823     1.49700
Zn649      Zn  0.39858576  0.85517705  0.35887155     1.49400
Zn650      Zn  0.35629449  0.85245771  0.40170859     1.49100
Zn651      Zn  0.35565550  0.89561493  0.35865512     1.49500
O652        O  0.37669861  0.87506660  0.38072617    -1.83400
O653        O  0.43298209  0.89826381  0.38856927    -0.74000
O654        O  0.40011922  0.81888461  0.37272875    -0.73800
O655        O  0.35995182  0.86259863  0.43956210    -0.73400
O656        O  0.43327478  0.87111355  0.35814493    -0.74000
O657        O  0.39266905  0.88654761  0.44028495    -0.73600
O658        O  0.37095086  0.81670758  0.40070806    -0.74200
O659        O  0.31931421  0.88272403  0.36036443    -0.73600
O660        O  0.38593067  0.85590677  0.32218876    -0.74400
O661        O  0.31955294  0.85258080  0.38761941    -0.73800
O662        O  0.36747477  0.89176624  0.32168972    -0.74200
O663        O  0.35585706  0.93287489  0.37017169    -0.74100
O664        O  0.38341674  0.93292561  0.39972106    -0.73900
C665        C  0.44404557  0.88781126  0.37061045     0.77900
C666        C  0.38830707  0.80654483  0.38892895     0.78400
C667        C  0.37623732  0.87429054  0.45184390     0.77300
C668        C  0.30797374  0.86570084  0.37182031     0.77700
C669        C  0.37525337  0.87294727  0.31014785     0.78800
C670        C  0.36774090  0.94439219  0.38682321     0.77900
N671        N  0.28186140  0.86152400  0.36706610    -0.02700
C672        C  0.26687751  0.84375188  0.37682484    -0.00100
C673        C  0.24319864  0.84669690  0.36976795    -0.23000
C674        C  0.24264827  0.86551973  0.35415733    -0.23200
C675        C  0.26588476  0.87433873  0.35229157    -0.00200
H676        H  0.22777678  0.83566495  0.37515222     0.13500
H677        H  0.22674893  0.87251409  0.34515614     0.13600
N678        N  0.46823124  0.89625558  0.36308773    -0.02700
C679        C  0.48108305  0.91583302  0.37217523    -0.00100
C680        C  0.50030575  0.92190896  0.35723085    -0.23000
C681        C  0.50013354  0.90603503  0.33839137    -0.23200
C682        C  0.48083630  0.89048092  0.34205938    -0.00200
H683        H  0.51403525  0.93551653  0.36065652     0.13500
H684        H  0.51358124  0.90492822  0.32414448     0.13600
N685        N  0.37623406  0.87311614  0.47898401    -0.02700
C686        C  0.35882149  0.86318509  0.49428833    -0.00100
C687        C  0.36611342  0.86330953  0.51841350    -0.23000
C688        C  0.38872491  0.87188883  0.51887252    -0.23200
C689        C  0.39425936  0.87945414  0.49543447    -0.00200
H690        H  0.35642979  0.85575845  0.53401685     0.13500
H691        H  0.39942028  0.87471126  0.53527807     0.13600
N692        N  0.39508797  0.78100951  0.39414849    -0.02700
C693        C  0.38643366  0.76450376  0.41123528    -0.00100
C694        C  0.39845106  0.74242327  0.40988527    -0.23000
C695        C  0.41567675  0.74484433  0.39290388    -0.23200
C696        C  0.41328517  0.76796601  0.38329508    -0.00200
H697        H  0.39470546  0.72591390  0.42023645     0.13500
H698        H  0.42799427  0.73064202  0.38693956     0.13600
N699        N  0.36953416  0.86956538  0.28395159    -0.02700
C700        C  0.36909986  0.84714113  0.27263209    -0.00100
C701        C  0.35280379  0.84669534  0.25353732    -0.23000
C702        C  0.34392366  0.86957203  0.25133642    -0.23200
C703        C  0.35478646  0.88358919  0.26916618    -0.00200
H704        H  0.35016716  0.83209799  0.24048853     0.13500
H705        H  0.33200559  0.87589282  0.23697662     0.13600
N706        N  0.36249572  0.97016882  0.39252641    -0.02700
C707        C  0.37203097  0.98315509  0.41180312    -0.00100
C708        C  0.35831237  0.00320510  0.41762433    -0.23000
C709        C  0.34044485  0.00410304  0.40109065    -0.23200
C710        C  0.34289581  0.98408757  0.38574492    -0.00200
H711        H  0.36263061  0.01735910  0.43084788     0.13500
H712        H  0.32805679  0.01927067  0.39904794     0.13600
Zn713      Zn  0.27055963  0.98982870  0.27289788     1.49700
Zn714      Zn  0.22434954  0.98924230  0.25207941     1.49400
Zn715      Zn  0.25121446  0.03794502  0.27159624     1.49100
Zn716      Zn  0.27381220  0.00855071  0.22512848     1.49500
O717        O  0.25263872  0.00857751  0.25327200    -1.83400
O718        O  0.25177774  0.97719000  0.30063878    -0.74000
O719        O  0.19740717  0.01312119  0.25959533    -0.73800
O720        O  0.27388555  0.03475275  0.30276859    -0.73400
O721        O  0.22856528  0.95769481  0.27460297    -0.74000
O722        O  0.29794325  0.00938225  0.28388293    -0.73600
O723        O  0.21550033  0.04412305  0.27849922    -0.74200
O724        O  0.27914208  0.04424306  0.21599616    -0.73600
O725        O  0.21899356  0.98463731  0.21574910    -0.74400
O726        O  0.25839394  0.06316175  0.24531246    -0.73800
O727        O  0.25230403  0.99864829  0.19684004    -0.74200
O728        O  0.30501151  0.98713605  0.23271354    -0.74100
O729        O  0.28220563  0.96226554  0.25391520    -0.73900
C730        C  0.24081382  0.95779813  0.29457137     0.77900
C731        C  0.19701844  0.03500657  0.26782012     0.78400
C732        C  0.29282472  0.02131480  0.30289008     0.77300
C733        C  0.26745831  0.06280285  0.22375616     0.77700
C734        C  0.22985765  0.99328330  0.19691260     0.78800
C735        C  0.30278260  0.96769575  0.24568572     0.77900
Zn736      Zn  0.15072745  0.14425229  0.10156983     1.49700
Zn737      Zn  0.10939009  0.10085939  0.10105247     1.49400
Zn738      Zn  0.15083285  0.10444127  0.14596211     1.49100
Zn739      Zn  0.10808703  0.14461573  0.14209288     1.49500
O740        O  0.12967410  0.12325403  0.12262960    -1.83400
O741        O  0.15267862  0.12889774  0.06659338    -0.74000
O742        O  0.11972364  0.06528932  0.10967418    -0.73800
O743        O  0.18602386  0.11992394  0.14673273    -0.73400
O744        O  0.12079903  0.10399219  0.06431119    -0.74000
O745        O  0.18537343  0.14745239  0.11674959    -0.73600
O746        O  0.15086289  0.06739765  0.13513945    -0.74200
O747        O  0.11163242  0.13778568  0.18030477    -0.73600
O748        O  0.07038519  0.10546165  0.10706753    -0.74400
O749        O  0.13647650  0.10604753  0.18209650    -0.73800
O750        O  0.07351899  0.13424439  0.13493914    -0.74200
O751        O  0.10946101  0.18119491  0.12943170    -0.74100
O752        O  0.13563670  0.17896643  0.09862374    -0.73900
C753        C  0.13944285  0.11396007  0.05432058     0.77900
C754        C  0.13600265  0.05461817  0.12238880     0.78400
C755        C  0.19656810  0.13693324  0.13438789     0.77300
C756        C  0.12173373  0.12067442  0.19277421     0.77700
C757        C  0.06021591  0.12010031  0.12245129     0.78800
C758        C  0.11984473  0.19101507  0.11077265     0.77900
N759        N  0.14711720  0.10639724  0.02975569    -0.02700
C760        C  0.17094862  0.10780678  0.02276854    -0.00100
C761        C  0.17787864  0.08681210  0.01079415    -0.23000
C762        C  0.15760871  0.07342276  0.00726100    -0.23200
C763        C  0.13872131  0.08546503  0.01862559    -0.00200
H764        H  0.19467988  0.08396591  0.00123734     0.13500
H765        H  0.15642418  0.05804870  0.99483661     0.13600
N766        N  0.13566981  0.02783120  0.12446560    -0.02700
C767        C  0.14914060  0.01340648  0.13977662    -0.00100
C768        C  0.13779668  0.99131859  0.14422620    -0.23000
C769        C  0.11735622  0.99103904  0.13056076    -0.23200
C770        C  0.11673647  0.01289560  0.11799216    -0.00200
H771        H  0.14471932  0.97625290  0.15484004     0.13500
H772        H  0.10537388  0.97552886  0.12814866     0.13600
N773        N  0.03401465  0.12003823  0.12775982    -0.02700
C774        C  0.02029519  0.09918963  0.12547843    -0.00100
C775        C  0.00858829  0.09451532  0.14745302    -0.23000
C776        C  0.01289459  0.11370015  0.16257672    -0.23200
C777        C  0.02594441  0.13055103  0.14925656    -0.00200
H778        H  0.99392681  0.08180987  0.15060382     0.13500
H779        H  0.00239219  0.11754437  0.17884330     0.13600
N780        N  0.11533760  0.11718599  0.21879887    -0.02700
C781        C  0.12086557  0.09810558  0.23447197    -0.00100
C782        C  0.10841913  0.09994581  0.25626871    -0.23000
C783        C  0.09512148  0.12034523  0.25509690    -0.23200
C784        C  0.09919683  0.13056017  0.23242923    -0.00200
H785        H  0.11031521  0.08834474  0.27230021     0.13500
H786        H  0.08360989  0.12744383  0.26954523     0.13600
N787        N  0.11183618  0.21486131  0.10161503    -0.02700
C788        C  0.11601056  0.22322439  0.07824792    -0.00100
C789        C  0.09752921  0.23789307  0.07017654    -0.23000
C790        C  0.08210638  0.24040149  0.08911439    -0.23200
C791        C  0.09092694  0.22650301  0.10827715    -0.00200
H792        H  0.09708447  0.24838603  0.05340676     0.13500
H793        H  0.06702550  0.25286464  0.08955934     0.13600
N794        N  0.22067422  0.14569508  0.14146772    -0.02700
C795        C  0.23387820  0.13970301  0.16190926    -0.00100
C796        C  0.25217018  0.15653348  0.16582624    -0.23000
C797        C  0.25058007  0.17360895  0.14817659    -0.23200
C798        C  0.23210175  0.16640387  0.13293875    -0.00200
H799        H  0.26625754  0.15566213  0.17956731     0.13500
H800        H  0.26348224  0.18822130  0.14496657     0.13600
Zn801      Zn  0.85897232  0.39642989  0.39080948     1.49700
Zn802      Zn  0.89388151  0.39274444  0.34209161     1.49400
Zn803      Zn  0.89436406  0.34843566  0.38138888     1.49100
Zn804      Zn  0.84625191  0.35815451  0.34516856     1.49500
O805        O  0.87309142  0.37373733  0.36522407    -1.83400
O806        O  0.86772802  0.43384794  0.38163791    -0.74000
O807        O  0.92999228  0.38651279  0.34738852    -0.73800
O808        O  0.88973128  0.35006488  0.41990512    -0.73400
O809        O  0.88870761  0.42955580  0.34712259    -0.74000
O810        O  0.87111801  0.38560254  0.42636606    -0.73600
O811        O  0.93203903  0.35591225  0.37404997    -0.74200
O812        O  0.84781167  0.32021217  0.34995625    -0.73600
O813        O  0.88621334  0.38524692  0.30612861    -0.74400
O814        O  0.88265330  0.31338720  0.36928007    -0.73800
O815        O  0.85148236  0.36480397  0.30685072    -0.74200
O816        O  0.81177299  0.37027747  0.35786361    -0.74100
O817        O  0.82087805  0.39258395  0.39077939    -0.73900
C818        C  0.87887514  0.44330896  0.36315948     0.77900
C819        C  0.94259211  0.37197548  0.36042022     0.78400
C820        C  0.88144894  0.36624154  0.43475132     0.77300
C821        C  0.86348823  0.30532859  0.35858080     0.77700
C822        C  0.86867146  0.37516231  0.29477391     0.78800
C823        C  0.80502566  0.38264432  0.37671822     0.77900
N824        N  0.86780748  0.37748839  0.26812350    -0.02700
C825        C  0.88816776  0.37983906  0.25385051    -0.00100
C826        C  0.88437162  0.39608022  0.23487720    -0.23000
C827        C  0.86135926  0.40389227  0.23672139    -0.23200
C828        C  0.85115354  0.39162386  0.25625137    -0.00200
H829        H  0.89624096  0.39976761  0.21958745     0.13500
H830        H  0.85206771  0.41498835  0.22333888     0.13600
N831        N  0.85935957  0.27897470  0.35624303    -0.02700
C832        C  0.87357126  0.26210942  0.34463539    -0.00100
C833        C  0.86378169  0.23894092  0.34610714    -0.23000
C834        C  0.84248733  0.24108879  0.35789326    -0.23200
C835        C  0.83994103  0.26540016  0.36426348    -0.00200
H836        H  0.87100484  0.22230725  0.33824636     0.13500
H837        H  0.83065741  0.22603600  0.36291953     0.13600
N838        N  0.96878362  0.37584978  0.36117095    -0.02700
C839        C  0.98205477  0.37654867  0.33976808    -0.00100
C840        C  0.99476474  0.39841107  0.33811742    -0.23000
C841        C  0.99054361  0.41118804  0.35869986    -0.23200
C842        C  0.97657454  0.39638336  0.37330694    -0.00200
H843        H  0.00928491  0.40288814  0.32566119     0.13500
H844        H  0.00070718  0.42715624  0.36449917     0.13600
N845        N  0.88427479  0.36281399  0.46130485    -0.02700
C846        C  0.89431240  0.37881906  0.47777813    -0.00100
C847        C  0.89539909  0.36898680  0.50094540    -0.23000
C848        C  0.88657404  0.34615093  0.49942805    -0.23200
C849        C  0.87926645  0.34250124  0.47550495    -0.00200
H850        H  0.90287876  0.37750658  0.51723630     0.13500
H851        H  0.88356367  0.33404491  0.51491367     0.13600
N852        N  0.88079776  0.46979347  0.35978787    -0.02700
C853        C  0.87255574  0.48195880  0.33933403    -0.00100
C854        C  0.88652074  0.50212697  0.33396139    -0.23000
C855        C  0.90389652  0.50332732  0.35118232    -0.23200
C856        C  0.90045461  0.48365750  0.36667687    -0.00200
H857        H  0.88329594  0.51556870  0.31975509     0.13500
H858        H  0.91713779  0.51778819  0.35302593     0.13600
N859        N  0.77923908  0.38563565  0.38236819    -0.02700
C860        C  0.76195283  0.39742391  0.36875986    -0.00100
C861        C  0.74141464  0.40167259  0.38227673    -0.23000
C862        C  0.74541915  0.39272901  0.40484754    -0.23200
C863        C  0.76802551  0.38210634  0.40469715    -0.00200
H864        H  0.72514547  0.41062382  0.37620908     0.13500
H865        H  0.73192063  0.39143938  0.41909352     0.13600
Zn866      Zn  0.98753088  0.28181342  0.25788902     1.49700
Zn867      Zn  0.03644440  0.26683198  0.24298000     1.49400
Zn868      Zn  0.99167736  0.22893566  0.24759062     1.49100
Zn869      Zn  0.99218785  0.27051945  0.20482648     1.49500
O870        O  0.00267032  0.26057069  0.23670847    -1.83400
O871        O  0.00714252  0.28252998  0.28732696    -0.74000
O872        O  0.05106584  0.23415431  0.25122447    -0.73800
O873        O  0.96344695  0.23130898  0.27287633    -0.73400
O874        O  0.03973757  0.29548127  0.26860593    -0.74000
O875        O  0.95632158  0.27101675  0.26928048    -0.73600
O876        O  0.02029997  0.20992110  0.26067492    -0.74200
O877        O  0.98437264  0.23843869  0.18671018    -0.73600
O878        O  0.05189217  0.27121454  0.20973470    -0.74400
O879        O  0.98481655  0.21021429  0.21635801    -0.73800
O880        O  0.02183776  0.28178017  0.18530869    -0.74200
O881        O  0.96487837  0.29705828  0.20981567    -0.74100
O882        O  0.98136930  0.31400938  0.24262463    -0.73900
C883        C  0.02434460  0.29750723  0.28601939     0.77900
C884        C  0.04253293  0.21284946  0.25538985     0.78400
C885        C  0.95110400  0.25035927  0.27810975     0.77300
C886        C  0.98575581  0.21616379  0.19377093     0.77700
C887        C  0.04343706  0.27421507  0.18826078     0.78800
C888        C  0.96493659  0.31374651  0.22645364     0.77900
C889        C  0.01389027  0.31587826  0.32603829    -0.01100
C890        C  0.02165651  0.31944427  0.30170488     0.08600
C891        C  0.01622874  0.34161678  0.29007593    -0.01200
C892        C  0.00099726  0.35878071  0.30152745    -0.01200
C893        C  0.99216103  0.35498381  0.32579382     0.08700
C894        C  0.99847518  0.33285712  0.33769971    -0.01400
Br895      Br  0.98526251  0.32422916  0.36918776     0.00000
Br896      Br  0.02510387  0.28731064  0.34328034     0.00000
Br897      Br  0.99107191  0.38675064  0.28256642     0.00000
Br898      Br  0.02901168  0.34801448  0.25775708     0.00000
C899        C  0.88901888  0.25973251  0.30269394    -0.01100
C900        C  0.89372121  0.26585803  0.32740879     0.08600
C901        C  0.91752551  0.26432512  0.33625470    -0.01200
C902        C  0.93635103  0.25732842  0.32039648    -0.01200
C903        C  0.93133292  0.25033098  0.29606755     0.08700
C904        C  0.90750601  0.25072188  0.28763058    -0.01400
Br905      Br  0.90002030  0.23598128  0.25654999     0.00000
Br906      Br  0.85642839  0.26102358  0.29029137     0.00000
Br907      Br  0.96900231  0.25610519  0.33220470     0.00000
Br908      Br  0.92398664  0.26974703  0.37049826     0.00000
C909        C  0.90358340  0.33705977  0.24667274    -0.01100
C910        C  0.90851094  0.36206605  0.25116132     0.08600
C911        C  0.93167666  0.37132430  0.24491069    -0.01200
C912        C  0.94914694  0.35608911  0.23391571    -0.01200
C913        C  0.94444066  0.33106915  0.23013390     0.08700
C914        C  0.92128488  0.32191478  0.23585580    -0.01400
Br915      Br  0.91326091  0.28885422  0.22734588     0.00000
Br916      Br  0.87229777  0.32336468  0.25412964     0.00000
Br917      Br  0.97841595  0.36991559  0.22073533     0.00000
Br918      Br  0.93930409  0.40537813  0.25078317     0.00000
C919        C  0.09391867  0.24271451  0.15140478    -0.01100
C920        C  0.08039889  0.23078535  0.13308205     0.08600
C921        C  0.05513614  0.23282495  0.13377842    -0.01200
C922        C  0.04398031  0.25085031  0.14822332    -0.01200
C923        C  0.05713515  0.26310984  0.16701144     0.08700
C924        C  0.08234878  0.25810103  0.16875065    -0.01400
Br925      Br  0.10186814  0.27296959  0.19400129     0.00000
Br926      Br  0.12828460  0.23783928  0.15291871     0.00000
Br927      Br  0.01072188  0.25810664  0.14074592     0.00000
Br928      Br  0.03606049  0.21165715  0.11288131     0.00000
C929        C  0.09676395  0.17533574  0.23399418    -0.01100
C930        C  0.08598132  0.15322437  0.22682079     0.08600
C931        C  0.06074448  0.15105127  0.22802443    -0.01200
C932        C  0.04660346  0.16947327  0.23885420    -0.01200
C933        C  0.05770285  0.19099644  0.24868922     0.08700
C934        C  0.08315060  0.19350858  0.24607106    -0.01400
Br935      Br  0.10036916  0.22052342  0.26082623     0.00000
Br936      Br  0.13068312  0.17991802  0.22792006     0.00000
Br937      Br  0.01209646  0.16397912  0.23910102     0.00000
Br938      Br  0.04616422  0.12097754  0.21646359     0.00000
C939        C  0.03158018  0.17343107  0.16593806    -0.01100
C940        C  0.01748756  0.15669739  0.15236510     0.08600
C941        C  0.99248549  0.16250687  0.14908832    -0.01200
C942        C  0.98182622  0.18270817  0.16136997    -0.01200
C943        C  0.99586765  0.19754726  0.17667043     0.08700
C944        C  0.02086491  0.19349537  0.17767135    -0.01400
Br945      Br  0.04070131  0.21496047  0.19672108     0.00000
Br946      Br  0.06551405  0.16932085  0.17048654     0.00000
Br947      Br  0.94792480  0.18955130  0.15850496     0.00000
Br948      Br  0.97182804  0.14187242  0.12957212     0.00000
C949        C  0.17898152  0.02875077  0.17001178    -0.01100
C950        C  0.17451086  0.01648443  0.14796665     0.08600
C951        C  0.19211718  0.99969387  0.13924437    -0.01200
C952        C  0.21174039  0.99273299  0.15422337    -0.01200
C953        C  0.21430266  0.00336404  0.17735565     0.08700
C954        C  0.19979792  0.02352848  0.18345459    -0.01400
Br955      Br  0.20891890  0.04446851  0.20992378     0.00000
Br956      Br  0.15449456  0.04847535  0.18475883     0.00000
Br957      Br  0.23467276  0.96862367  0.14366029     0.00000
Br958      Br  0.18765420  0.98369066  0.10827202     0.00000
C959        C  0.15402148  0.04152591  0.25245938    -0.01100
C960        C  0.17645839  0.05151297  0.26024657     0.08600
C961        C  0.18086157  0.07683825  0.25541120    -0.01200
C962        C  0.16398227  0.09110088  0.24240255    -0.01200
C963        C  0.14173494  0.08123208  0.23510815     0.08700
C964        C  0.13687079  0.05633395  0.24037432    -0.01400
Br965      Br  0.10562619  0.04296731  0.23177131     0.00000
Br966      Br  0.14543996  0.00793156  0.25945897     0.00000
Br967      Br  0.16990787  0.12547990  0.23708095     0.00000
Br968      Br  0.20964261  0.09340698  0.26645913     0.00000
C969        C  0.24234653  0.09506932  0.16682448    -0.01100
C970        C  0.23408534  0.11713243  0.17717671     0.08600
C971        C  0.23765660  0.12102954  0.20248488    -0.01200
C972        C  0.25246813  0.10534477  0.21617513    -0.01200
C973        C  0.26023661  0.08284226  0.20638475     0.08700
C974        C  0.25529223  0.07797072  0.18120960    -0.01400
Br975      Br  0.26709025  0.04884747  0.16519702     0.00000
Br976      Br  0.23678600  0.08869623  0.13255915     0.00000
Br977      Br  0.26578657  0.11698518  0.24669291     0.00000
Br978      Br  0.22509195  0.15036619  0.21752883     0.00000
C979        C  0.34173748  0.99152815  0.34069716    -0.01100
C980        C  0.32920049  0.98528292  0.36227615     0.08600
C981        C  0.30471396  0.99249464  0.36438506    -0.01200
C982        C  0.29405438  0.00815163  0.34695609    -0.01200
C983        C  0.30664964  0.01461318  0.32543878     0.08700
C984        C  0.33091574  0.00675521  0.32292192    -0.01400
Br985      Br  0.34988842  0.01769591  0.29531751     0.00000
Br986      Br  0.37362905  0.97892365  0.33500818     0.00000
Br987      Br  0.26303884  0.02240431  0.35399239     0.00000
Br988      Br  0.28673929  0.98334557  0.39336808     0.00000
C989        C  0.35575074  0.92335999  0.24598575    -0.01100
C990        C  0.35074964  0.91054967  0.26824739     0.08600
C991        C  0.33353893  0.92050918  0.28399068    -0.01200
C992        C  0.32187298  0.94228717  0.27815417    -0.01200
C993        C  0.32324551  0.95218073  0.25426387     0.08700
C994        C  0.34140066  0.94350894  0.23861048    -0.01400
Br995      Br  0.34493937  0.95739359  0.20636571     0.00000
Br996      Br  0.37931453  0.91098391  0.22334140     0.00000
Br997      Br  0.30294588  0.95705294  0.30340703     0.00000
Br998      Br  0.31977561  0.90116658  0.30947951     0.00000
C999        C  0.26219439  0.91887898  0.34808412    -0.01100
C1000       C  0.26822508  0.89657503  0.33687325     0.08600
C1001       C  0.26317710  0.89381795  0.31153576    -0.01200
C1002       C  0.25331538  0.91322331  0.29765139    -0.01200
C1003       C  0.24628900  0.93522760  0.30925630     0.08700
C1004       C  0.25012909  0.93735975  0.33481110    -0.01400
Br1005     Br  0.23595139  0.96420219  0.35235836     0.00000
Br1006     Br  0.26745629  0.92225419  0.38278176     0.00000
Br1007     Br  0.24990939  0.90924789  0.26273697     0.00000
Br1008     Br  0.26877633  0.86248295  0.29615088     0.00000
C1009       C  0.78442747  0.25145359  0.39781744    -0.01100
C1010       C  0.79438129  0.24631632  0.42109046     0.08600
C1011       C  0.81854544  0.25385595  0.42557932    -0.01200
C1012       C  0.83176554  0.26717899  0.40795512    -0.01200
C1013       C  0.82258084  0.27038519  0.38426725     0.08700
C1014       C  0.79828501  0.26372469  0.37977873    -0.01400
Br1015     Br  0.78541025  0.26829840  0.34732004     0.00000
Br1016     Br  0.75343062  0.23787897  0.38899426     0.00000
Br1017     Br  0.86439071  0.27761724  0.41487784     0.00000
Br1018     Br  0.83562537  0.24337482  0.45417055     0.00000
C1019       C  0.85071304  0.28571800  0.49551241    -0.01100
C1020       C  0.82772106  0.29471556  0.50196271     0.08600
C1021       C  0.82158634  0.31867368  0.49422371    -0.01200
C1022       C  0.83673626  0.33197453  0.47824260    -0.01200
C1023       C  0.86010640  0.32366448  0.47293119     0.08700
C1024       C  0.86646218  0.29979732  0.48065747    -0.01400
Br1025     Br  0.89878088  0.28847157  0.47436616     0.00000
Br1026     Br  0.86223968  0.25596087  0.51046972     0.00000
Br1027     Br  0.82742656  0.36404890  0.46725922     0.00000
Br1028     Br  0.79502311  0.33580728  0.50877111     0.00000
C1029       C  0.74919601  0.32191245  0.42829466    -0.01100
C1030       C  0.74554164  0.32701705  0.45352516     0.08600
C1031       C  0.75312347  0.35011303  0.46237375    -0.01200
C1032       C  0.76600832  0.36655166  0.44710963    -0.01200
C1033       C  0.77010397  0.36114859  0.42205720     0.08700
C1034       C  0.76255243  0.33809937  0.41325680    -0.01400
Br1035     Br  0.76783420  0.32976231  0.37938199     0.00000
Br1036     Br  0.73281850  0.29499973  0.41252267     0.00000
Br1037     Br  0.77479678  0.39856807  0.45935836     0.00000
Br1038     Br  0.74118682  0.36148889  0.49357670     0.00000
C1039       C  0.66902691  0.25546397  0.59402065    -0.01100
C1040       C  0.67375772  0.23779151  0.61246134     0.08600
C1041       C  0.69777654  0.23045380  0.61607054    -0.01200
C1042       C  0.71658475  0.24073347  0.60196764    -0.01200
C1043       C  0.71164153  0.25648747  0.58214811     0.08700
C1044       C  0.68776664  0.26463843  0.57895001    -0.01400
Br1045     Br  0.68106538  0.29037823  0.55581961     0.00000
Br1046     Br  0.63743713  0.26985816  0.59154963     0.00000
Br1047     Br  0.74928038  0.23778227  0.61307263     0.00000
Br1048     Br  0.70499550  0.20859063  0.64278537     0.00000
C1049       C  0.73291807  0.13237580  0.55599332    -0.01100
C1050       C  0.73596160  0.13890900  0.58086134     0.08600
C1051       C  0.74971010  0.16006548  0.58626117    -0.01200
C1052       C  0.76061314  0.17394833  0.56737947    -0.01200
C1053       C  0.75632783  0.16826823  0.54262460     0.08700
C1054       C  0.74285437  0.14700823  0.53710318    -0.01400
Br1055     Br  0.74033098  0.13663928  0.50355914     0.00000
Br1056     Br  0.71572082  0.10268888  0.54790209     0.00000
Br1057     Br  0.78258537  0.20014309  0.57536134     0.00000
Br1058     Br  0.75444049  0.16977516  0.61967539     0.00000
C1059       C  0.76035910  0.10785826  0.67454834    -0.01100
C1060       C  0.73759449  0.10163599  0.66390525     0.08600
C1061       C  0.72255531  0.08560543  0.67733865    -0.01200
C1062       C  0.73017660  0.07535295  0.69962974    -0.01200
C1063       C  0.75353610  0.07979401  0.70871321     0.08700
C1064       C  0.76829330  0.09677069  0.69657245    -0.01400
Br1065     Br  0.79991186  0.10353523  0.70956551     0.00000
Br1066     Br  0.78279360  0.12859672  0.65728240     0.00000
Br1067     Br  0.70959951  0.05184701  0.71573880     0.00000
Br1068     Br  0.69324979  0.07336118  0.66404405     0.00000
C1069       C  0.65519782  0.04522649  0.75907040    -0.01100
C1070       C  0.67784128  0.05328038  0.76782945     0.08600
C1071       C  0.68433259  0.07832569  0.76439853    -0.01200
C1072       C  0.66921323  0.09408057  0.75093618    -0.01200
C1073       C  0.64710659  0.08559494  0.74142489     0.08700
C1074       C  0.64049098  0.06094229  0.74520525    -0.01400
Br1075     Br  0.60942994  0.04973249  0.73373558     0.00000
Br1076     Br  0.64278487  0.01362211  0.76876376     0.00000
Br1077     Br  0.67739848  0.12838167  0.74778918     0.00000
Br1078     Br  0.71348152  0.09224236  0.77812553     0.00000
C1079       C  0.65530867  0.17336095  0.51319095    -0.01100
C1080       C  0.63613104  0.18442331  0.52606991     0.08600
C1081       C  0.63516851  0.21020301  0.52713352    -0.01200
C1082       C  0.65130668  0.22454827  0.51341538    -0.01200
C1083       C  0.66989307  0.21359023  0.49979695     0.08700
C1084       C  0.67143964  0.18785775  0.49926117    -0.01400
Br1085     Br  0.69469862  0.17252420  0.47820683     0.00000
Br1086     Br  0.66012337  0.13855629  0.51519917     0.00000
Br1087     Br  0.64697670  0.25943592  0.51151265     0.00000
Br1088     Br  0.61064701  0.22582950  0.54666295     0.00000
C1089       C  0.67088989  0.01363623  0.65652255    -0.01100
C1090       C  0.68288183  0.02315585  0.63580013     0.08600
C1091       C  0.70845576  0.02273413  0.63565362    -0.01200
C1092       C  0.72170954  0.01150989  0.65464298    -0.01200
C1093       C  0.70980829  0.00136879  0.67544865     0.08700
C1094       C  0.68399144  0.00228235  0.67576705    -0.01400
Br1095     Br  0.66529647  0.98763559  0.70191673     0.00000
Br1096     Br  0.63644467  0.01728052  0.65954026     0.00000
Br1097     Br  0.75636083  0.00935739  0.65037194     0.00000
Br1098     Br  0.72568964  0.03934572  0.60961772     0.00000
C1099       C  0.78801604  0.00037622  0.85708324    -0.01100
C1100       C  0.79364423  0.01164509  0.83451595     0.08600
C1101       C  0.81751898  0.01088878  0.82580103    -0.01200
C1102       C  0.83495425  0.99710606  0.83823156    -0.01200
C1103       C  0.83005417  0.98802231  0.86188403     0.08700
C1104       C  0.80630955  0.98922788  0.87100950    -0.01400
Br1105     Br  0.79989158  0.97844304  0.90398388     0.00000
Br1106     Br  0.75580488  0.00281249  0.87014431     0.00000
Br1107     Br  0.86723475  0.99489422  0.82521862     0.00000
Br1108     Br  0.82718264  0.03100884  0.79851122     0.00000
C1109       C  0.75551197  0.90536103  0.83482725    -0.01100
C1110       C  0.76615542  0.88475239  0.82326754     0.08600
C1111       C  0.76314993  0.88224349  0.79746092    -0.01200
C1112       C  0.74968450  0.89954775  0.78397985    -0.01200
C1113       C  0.74041156  0.92053439  0.79534440     0.08700
C1114       C  0.74248861  0.92267799  0.82093307    -0.01400
Br1115     Br  0.72770286  0.95035670  0.83674341     0.00000
Br1116     Br  0.75869985  0.91119370  0.86954741     0.00000
Br1117     Br  0.74304545  0.89458843  0.74972105     0.00000
Br1118     Br  0.77883984  0.85621512  0.77960339     0.00000
C1119       C  0.84181210  0.92247890  0.76308424    -0.01100
C1120       C  0.86520926  0.92976969  0.77000464     0.08600
C1121       C  0.87154394  0.95478803  0.76848188    -0.01200
C1122       C  0.85481731  0.97214044  0.75971131    -0.01200
C1123       C  0.83150432  0.96465587  0.75265336     0.08700
C1124       C  0.82543195  0.93967251  0.75377637    -0.01400
Br1125     Br  0.79516217  0.92878815  0.74055191     0.00000
Br1126     Br  0.83321253  0.88829598  0.76356846     0.00000
Br1127     Br  0.86480210  0.00537959  0.75396987     0.00000
Br1128     Br  0.90401284  0.96465276  0.77660856     0.00000
C1129       C  0.01706409  0.85270130  0.83865098    -0.01100
C1130       C  0.99151921  0.85643960  0.84092987     0.08600
C1131       C  0.97594229  0.83948245  0.82962057    -0.01200
C1132       C  0.98545318  0.82037978  0.81528803    -0.01200
C1133       C  0.01057019  0.81744524  0.81220243     0.08700
C1134       C  0.02632365  0.83301179  0.82472087    -0.01400
Br1135     Br  0.06057644  0.82745427  0.82197628     0.00000
Br1136     Br  0.04038864  0.87467636  0.85307122     0.00000
Br1137     Br  0.96374653  0.79848510  0.79894049     0.00000
Br1138     Br  0.94141008  0.84323889  0.83173784     0.00000
C1139       C  0.94125650  0.85639676  0.76648713    -0.01100
C1140       C  0.91604544  0.85403389  0.76795488     0.08600
C1141       C  0.90518968  0.83242036  0.75926828    -0.01200
C1142       C  0.91901529  0.81430942  0.74728315    -0.01200
C1143       C  0.94427213  0.81741225  0.74403916     0.08700
C1144       C  0.95512024  0.83921660  0.75338804    -0.01400
Br1145     Br  0.98862932  0.84742214  0.74776403     0.00000
Br1146     Br  0.95610646  0.88557659  0.77987021     0.00000
Br1147     Br  0.90234962  0.78708770  0.73238064     0.00000
Br1148     Br  0.87060283  0.82935121  0.76139950     0.00000
C1149       C  0.93249200  0.76945963  0.85169881    -0.01100
C1150       C  0.90921455  0.77425923  0.84299911     0.08600
C1151       C  0.90342100  0.76726953  0.81899550    -0.01200
C1152       C  0.91862131  0.75147227  0.80566012    -0.01200
C1153       C  0.94167521  0.74483293  0.81505223     0.08700
C1154       C  0.94801099  0.75357161  0.83880710    -0.01400
Br1155     Br  0.97651270  0.74215344  0.85556044     0.00000
Br1156     Br  0.94176642  0.78323279  0.88277422     0.00000
Br1157     Br  0.90563659  0.73724301  0.77606850     0.00000
Br1158     Br  0.87229410  0.77661337  0.80641974     0.00000
C1159       C  0.10414649  0.67647152  0.73965808    -0.01100
C1160       C  0.09285164  0.65344220  0.73758101     0.08600
C1161       C  0.06896534  0.65060940  0.74628113    -0.01200
C1162       C  0.05742743  0.66985463  0.75874796    -0.01200
C1163       C  0.06865260  0.69292362  0.76055601     0.08700
C1164       C  0.09229685  0.69590453  0.75151989    -0.01400
Br1165     Br  0.10974194  0.72532528  0.75940061     0.00000
Br1166     Br  0.13740370  0.67994227  0.72979323     0.00000
Br1167     Br  0.02764368  0.66379309  0.77599153     0.00000
Br1168     Br  0.05434997  0.61844526  0.74564601     0.00000
C1169       C  0.06984544  0.72888253  0.64938637    -0.01100
C1170       C  0.09367757  0.72807720  0.65794791     0.08600
C1171       C  0.09921197  0.73886932  0.68074183    -0.01200
C1172       C  0.08192930  0.75310457  0.69317224    -0.01200
C1173       C  0.05836565  0.75518871  0.68372427     0.08700
C1174       C  0.05283780  0.74373373  0.66124903    -0.01400
Br1175     Br  0.02366138  0.75236192  0.64441871     0.00000
Br1176     Br  0.06226670  0.71366096  0.61846435     0.00000
Br1177     Br  0.09153523  0.77206919  0.72126466     0.00000
Br1178     Br  0.13205477  0.73767318  0.69224615     0.00000
C1179       C  0.01461591  0.64749673  0.67818865    -0.01100
C1180       C  0.01450288  0.65663749  0.65415388     0.08600
C1181       C  0.00365267  0.67975804  0.64978578    -0.01200
C1182       C  0.99220277  0.69276182  0.66888402    -0.01200
C1183       C  0.99274895  0.68369537  0.69300421     0.08700
C1184       C  0.00284814  0.66036002  0.69709602    -0.01400
Br1185     Br  0.99538889  0.64366973  0.72707567     0.00000
Br1186     Br  0.02744546  0.61530324  0.68424839     0.00000
Br1187     Br  0.97256979  0.72078185  0.66123416     0.00000
Br1188     Br  0.00031816  0.69118191  0.61642492     0.00000
C1189       C  0.79818720  0.84818611  0.00209544    -0.01100
C1190       C  0.80640581  0.82544629  0.01182189     0.08600
C1191       C  0.83032140  0.81797840  0.00567870    -0.01200
C1192       C  0.84443814  0.83181496  0.98923183    -0.01200
C1193       C  0.83743725  0.85545488  0.98254295     0.08700
C1194       C  0.81360467  0.86266146  0.98732911    -0.01400
Br1195     Br  0.80335188  0.89399157  0.97506380     0.00000
Br1196     Br  0.76609337  0.86049632  0.00819154     0.00000
Br1197     Br  0.87544657  0.82040207  0.97821255     0.00000
Br1198     Br  0.84546151  0.79008787  0.02104747     0.00000
C1199       C  0.83614399  0.75199048  0.94872126    -0.01100
C1200       C  0.81139645  0.75202012  0.94169171     0.08600
C1201       C  0.80536534  0.76352054  0.91894758    -0.01200
C1202       C  0.82337086  0.77493893  0.90450754    -0.01200
C1203       C  0.84776985  0.77394281  0.91121344     0.08700
C1204       C  0.85384625  0.76330830  0.93386362    -0.01400
Br1205     Br  0.88761600  0.76092481  0.94235535     0.00000
Br1206     Br  0.84720579  0.73420836  0.97719110     0.00000
Br1207     Br  0.81539902  0.78969768  0.87343837     0.00000
Br1208     Br  0.77293745  0.76343468  0.90572818     0.00000
C1209       C  0.76707122  0.82307503  0.93705962    -0.01100
C1210       C  0.74174301  0.82027048  0.93823827     0.08600
C1211       C  0.72758612  0.83078891  0.91982093    -0.01200
C1212       C  0.73886066  0.84235578  0.89956376    -0.01200
C1213       C  0.76456053  0.84325882  0.89749664     0.08700
C1214       C  0.77831420  0.83536880  0.91748503    -0.01400
Br1215     Br  0.81279738  0.83995828  0.91761479     0.00000
Br1216     Br  0.78697048  0.80613739  0.95993054     0.00000
Br1217     Br  0.71881865  0.85571632  0.87405028     0.00000
Br1218     Br  0.69299766  0.82782906  0.92175731     0.00000
C1219       C  0.66050723  0.74604064  0.09766877    -0.01100
C1220       C  0.64137401  0.73916324  0.08198252     0.08600
C1221       C  0.64329031  0.74502338  0.05682655    -0.01200
C1222       C  0.66186784  0.76029843  0.04815551    -0.01200
C1223       C  0.68108010  0.76702847  0.06358125     0.08700
C1224       C  0.68012996  0.75997710  0.08847773    -0.01400
Br1225     Br  0.70434341  0.77214936  0.11059591     0.00000
Br1226     Br  0.66039016  0.73650229  0.13162396     0.00000
Br1227     Br  0.65994341  0.77316408  0.01533160     0.00000
Br1228     Br  0.61948832  0.73278821  0.03413575     0.00000
C1229       C  0.75109736  0.70819197  0.08818578    -0.01100
C1230       C  0.75951678  0.69694482  0.06669605     0.08600
C1231       C  0.75626617  0.67162140  0.06363220    -0.01200
C1232       C  0.74334418  0.65784309  0.08109647    -0.01200
C1233       C  0.73405399  0.66921489  0.10234831     0.08700
C1234       C  0.73760967  0.69467033  0.10538250    -0.01400
Br1235     Br  0.72520299  0.71061434  0.13422722     0.00000
Br1236     Br  0.75944011  0.74184393  0.09465195     0.00000
Br1237     Br  0.74004640  0.62309779  0.07641526     0.00000
Br1238     Br  0.77219556  0.65566881  0.03668766     0.00000
C1239       C  0.64335912  0.68020119  0.00113778    -0.01100
C1240       C  0.65367493  0.65946323  0.01257614     0.08600
C1241       C  0.67898258  0.65746259  0.01322561    -0.01200
C1242       C  0.69356168  0.67502151  0.00147364    -0.01200
C1243       C  0.68337053  0.69621642  0.99134770     0.08700
C1244       C  0.65819139  0.69853080  0.99074691    -0.01400
Br1245     Br  0.64455226  0.72496346  0.97210580     0.00000
Br1246     Br  0.60889774  0.68145902  0.99640655     0.00000
Br1247     Br  0.72709905  0.66856433  0.99591775     0.00000
Br1248     Br  0.69331023  0.62846680  0.02700718     0.00000
C1249       C  0.32897164  0.80829723  0.51066687    -0.01100
C1250       C  0.30531263  0.81624082  0.51664574     0.08600
C1251       C  0.29860351  0.84019035  0.50908632    -0.01200
C1252       C  0.31513593  0.85526484  0.49602939    -0.01200
C1253       C  0.33818079  0.84658828  0.48940084     0.08700
C1254       C  0.34358996  0.82203633  0.49456207    -0.01400
Br1255     Br  0.37474174  0.81017154  0.48477373     0.00000
Br1256     Br  0.34342566  0.78049293  0.52663028     0.00000
Br1257     Br  0.30749648  0.88882636  0.48879999     0.00000
Br1258     Br  0.26745207  0.85318242  0.51773767     0.00000
C1259       C  0.26987507  0.80793171  0.43419241    -0.01100
C1260       C  0.25397247  0.78888059  0.42774762     0.08600
C1261       C  0.25094792  0.78389423  0.40271495    -0.01200
C1262       C  0.26167977  0.79967875  0.38524620    -0.01200
C1263       C  0.27188767  0.82248718  0.39265168     0.08700
C1264       C  0.27604958  0.82630858  0.41761538    -0.01400
Br1265     Br  0.28561198  0.85768288  0.43049782     0.00000
Br1266     Br  0.28946560  0.80452706  0.46226027     0.00000
Br1267     Br  0.25924449  0.79209012  0.35086683     0.00000
Br1268     Br  0.23199383  0.75616671  0.39239912     0.00000
C1269       C  0.15694553  0.73744349  0.54467684    -0.01100
C1270       C  0.17931042  0.74888325  0.54940578     0.08600
C1271       C  0.18782126  0.74979903  0.57361874    -0.01200
C1272       C  0.17524592  0.73766702  0.59246201    -0.01200
C1273       C  0.15248419  0.72684662  0.58796898     0.08700
C1274       C  0.14378102  0.72617262  0.56377465    -0.01400
Br1275     Br  0.11219400  0.71258856  0.55777382     0.00000
Br1276     Br  0.14252572  0.74143091  0.51298666     0.00000
Br1277     Br  0.18662699  0.74003573  0.62574593     0.00000
Br1278     Br  0.21525486  0.77013389  0.58137063     0.00000
C1279       C  0.35314562  0.74304425  0.46558732    -0.01100
C1280       C  0.32990587  0.73936998  0.45577361     0.08600
C1281       C  0.32502261  0.74840679  0.43190602    -0.01200
C1282       C  0.34259164  0.76191410  0.41881085    -0.01200
C1283       C  0.36584468  0.76532630  0.42853639     0.08700
C1284       C  0.37069281  0.75640357  0.45248209    -0.01400
Br1285     Br  0.40320916  0.75845961  0.46559194     0.00000
Br1286     Br  0.36230711  0.72613549  0.49521453     0.00000
Br1287     Br  0.33571105  0.77307916  0.38602031     0.00000
Br1288     Br  0.29542554  0.74041330  0.41533965     0.00000
C1289       C  0.18450341  0.67603325  0.49782618    -0.01100
C1290       C  0.20814501  0.66676789  0.49935518     0.08600
C1291       C  0.21185988  0.64423522  0.51128290    -0.01200
C1292       C  0.19252482  0.63185793  0.52277434    -0.01200
C1293       C  0.16886752  0.64098171  0.52106821     0.08700
C1294       C  0.16521225  0.66375178  0.50946120    -0.01400
Br1295     Br  0.13262359  0.67535032  0.50545580     0.00000
Br1296     Br  0.17801198  0.70368099  0.47702331     0.00000
Br1297     Br  0.19731071  0.60015825  0.53743459     0.00000
Br1298     Br  0.24233419  0.62811767  0.50716295     0.00000
C1299       C  0.26093433  0.66955816  0.57075194    -0.01100
C1300       C  0.26004624  0.69388916  0.57910130     0.08600
C1301       C  0.24787999  0.69900902  0.60117743    -0.01200
C1302       C  0.23537507  0.68038602  0.61390656    -0.01200
C1303       C  0.23541015  0.65613697  0.60507152     0.08700
C1304       C  0.24778689  0.65109731  0.58297401    -0.01400
Br1305     Br  0.25021860  0.61759122  0.57209171     0.00000
Br1306     Br  0.28244711  0.66096721  0.54439848     0.00000
Br1307     Br  0.22106939  0.68722212  0.64532550     0.00000
Br1308     Br  0.25193666  0.73083399  0.61573839     0.00000
C1309       C  0.79493886  0.39675411  0.22392578    -0.01100
C1310       C  0.78673441  0.41729533  0.23666803     0.08600
C1311       C  0.79368541  0.42034157  0.26127611    -0.01200
C1312       C  0.81219645  0.40631625  0.27150898    -0.01200
C1313       C  0.82445557  0.38952255  0.25677201     0.08700
C1314       C  0.81335175  0.38230510  0.23439694    -0.01400
Br1315     Br  0.82660764  0.35546460  0.21614456     0.00000
Br1316     Br  0.78201123  0.38957730  0.19206944     0.00000
Br1317     Br  0.82226053  0.41222449  0.30470052     0.00000
Br1318     Br  0.77904570  0.44506779  0.28059873     0.00000
C1319       C  0.83114517  0.48048768  0.28532346    -0.01100
C1320       C  0.81266305  0.49686445  0.29299085     0.08600
C1321       C  0.81304029  0.50505634  0.31758018    -0.01200
C1322       C  0.83050205  0.49629541  0.33425562    -0.01200
C1323       C  0.84887757  0.48014987  0.32658864     0.08700
C1324       C  0.84894758  0.47234612  0.30201075    -0.01400
Br1325     Br  0.87508161  0.45183600  0.29086217     0.00000
Br1326     Br  0.83325771  0.46915407  0.25190461     0.00000
Br1327     Br  0.83110594  0.50888252  0.36723741     0.00000
Br1328     Br  0.79175001  0.53103334  0.32780647     0.00000
C1329       C  0.75052475  0.57798073  0.14549090    -0.01100
C1330       C  0.73103035  0.59382729  0.15131875     0.08600
C1331       C  0.71554522  0.58705997  0.17027923    -0.01200
C1332       C  0.71836158  0.56457884  0.18199797    -0.01200
C1333       C  0.74042191  0.55161192  0.18016732     0.08700
C1334       C  0.75606997  0.55777823  0.16074547    -0.01400
Br1335     Br  0.78550884  0.53987260  0.15554215     0.00000
Br1336     Br  0.77139204  0.58554492  0.11831405     0.00000
Br1337     Br  0.69042515  0.55117191  0.19801953     0.00000
Br1338     Br  0.69468264  0.61074964  0.18483022     0.00000
C1339       C  0.73415730  0.41043656  0.30980691    -0.01100
C1340       C  0.73199233  0.43634869  0.31222872     0.08600
C1341       C  0.74655416  0.44801314  0.33055516    -0.01200
C1342       C  0.76299265  0.43438492  0.34474158    -0.01200
C1343       C  0.76277881  0.40876075  0.34420258     0.08700
C1344       C  0.74935793  0.39701338  0.32571380    -0.01400
Br1345     Br  0.75042976  0.36183999  0.32393819     0.00000
Br1346     Br  0.71554726  0.39218403  0.28602832     0.00000
Br1347     Br  0.78347318  0.45020828  0.36866171     0.00000
Br1348     Br  0.74475805  0.48259114  0.33793446     0.00000
C1349       C  0.65584537  0.48057383  0.17080593    -0.01100
C1350       C  0.68110342  0.47839747  0.17075316     0.08600
C1351       C  0.69432201  0.49007158  0.15198611    -0.01200
C1352       C  0.68323405  0.50710932  0.13645030    -0.01200
C1353       C  0.65790081  0.50968190  0.13636715     0.08700
C1354       C  0.64414155  0.49599241  0.15372662    -0.01400
Br1355     Br  0.60956209  0.49890103  0.15618313     0.00000
Br1356     Br  0.63756477  0.46314347  0.19528800     0.00000
Br1357     Br  0.70340145  0.52965360  0.11822666     0.00000
Br1358     Br  0.72870185  0.48496785  0.14996930     0.00000
C1359       C  0.65088274  0.58327637  0.24269028    -0.01100
C1360       C  0.66487545  0.60431434  0.23760640     0.08600
C1361       C  0.68986799  0.60379569  0.24399045    -0.01200
C1362       C  0.70063427  0.58250282  0.25365205    -0.01200
C1363       C  0.68646240  0.56157331  0.25880908     0.08700
C1364       C  0.66135629  0.56255015  0.25398809    -0.01400
Br1365     Br  0.64079582  0.53587746  0.26442678     0.00000
Br1366     Br  0.61682886  0.58323291  0.23594095     0.00000
Br1367     Br  0.73516298  0.58235375  0.25882929     0.00000
Br1368     Br  0.70976793  0.63299704  0.24083987     0.00000
C1369       C  0.22393250  0.14950351  0.01099360    -0.01100
C1370       C  0.21755992  0.16092927  0.98856057     0.08600
C1371       C  0.19511182  0.15477226  0.97802126    -0.01200
C1372       C  0.17854789  0.13962761  0.99061911    -0.01200
C1373       C  0.18396790  0.13020201  0.01416278     0.08700
C1374       C  0.20693288  0.13517929  0.02405273    -0.01400
Br1375     Br  0.21543225  0.12108604  0.05528488     0.00000
Br1376     Br  0.25643579  0.15108722  0.02328706     0.00000
Br1377     Br  0.14937903  0.13000244  0.97403982     0.00000
Br1378     Br  0.18776679  0.16542714  0.94511645     0.00000
C1379       C  0.15061733  0.24996334  0.06819021    -0.01100
C1380       C  0.13947151  0.22678051  0.06563708     0.08600
C1381       C  0.14355680  0.21342786  0.04406975    -0.01200
C1382       C  0.15829260  0.22303077  0.02522906    -0.01200
C1383       C  0.16935970  0.24640744  0.02777317     0.08700
C1384       C  0.16421310  0.26020435  0.04892803    -0.01400
Br1385     Br  0.17412757  0.29411521  0.05066738     0.00000
Br1386     Br  0.14574498  0.26873332  0.09760769     0.00000
Br1387     Br  0.16168060  0.20414843  0.99571721     0.00000
Br1388     Br  0.12759449  0.18230364  0.04007968     0.00000
C1389       C  0.26428408  0.18676393  0.07759339    -0.01100
C1390       C  0.25283187  0.20919298  0.07237561     0.08600
C1391       C  0.23143844  0.21512037  0.08554460    -0.01200
C1392       C  0.22216066  0.19904745  0.10350969    -0.01200
C1393       C  0.23308912  0.17630958  0.10777108     0.08700
C1394       C  0.25356625  0.16984453  0.09377005    -0.01400
Br1395     Br  0.26895784  0.13873475  0.09936564     0.00000
Br1396     Br  0.29642375  0.18046180  0.06533154     0.00000
Br1397     Br  0.19560615  0.20892834  0.12417140     0.00000
Br1398     Br  0.21457578  0.24537809  0.08034800     0.00000
C1399       C  0.31454254  0.33084981  0.00932378    -0.01100
C1400       C  0.29203275  0.32643358  0.99835867     0.08600
C1401       C  0.28557431  0.34008795  0.97752491    -0.01200
C1402       C  0.30239082  0.35574944  0.96606871    -0.01200
C1403       C  0.32480533  0.36057082  0.97719773     0.08700
C1404       C  0.33019066  0.34880871  0.99965461    -0.01400
Br1405     Br  0.35745579  0.35904728  0.01891774     0.00000
Br1406     Br  0.32338058  0.31286184  0.03826634     0.00000
Br1407     Br  0.29460609  0.37078281  0.93518051     0.00000
Br1408     Br  0.25301611  0.33861496  0.96575294     0.00000
C1409       C  0.36320848  0.26890772  0.93848723    -0.01100
C1410       C  0.36539033  0.25930837  0.91468865     0.08600
C1411       C  0.34999893  0.23982867  0.90751184    -0.01200
C1412       C  0.33295246  0.23008940  0.92390480    -0.01200
C1413       C  0.33016741  0.24024010  0.94728357     0.08700
C1414       C  0.34555547  0.25955704  0.95464655    -0.01400
Br1415     Br  0.34322233  0.27262624  0.98718591     0.00000
Br1416     Br  0.38533086  0.29403044  0.94926653     0.00000
Br1417     Br  0.31424905  0.20152497  0.91520865     0.00000
Br1418     Br  0.35357576  0.22466778  0.87589654     0.00000
C1419       C  0.27619790  0.29455418  0.88180386    -0.01100
C1420       C  0.26863956  0.31882949  0.87763597     0.08600
C1421       C  0.24655400  0.32645565  0.88844963    -0.01200
C1422       C  0.23462232  0.31147133  0.90576023    -0.01200
C1423       C  0.24265803  0.28750870  0.91011854     0.08700
C1424       C  0.26237645  0.27867869  0.89659850    -0.01400
Br1425     Br  0.26920709  0.24428253  0.89698080     0.00000
Br1426     Br  0.30474260  0.28244652  0.86564848     0.00000
Br1427     Br  0.20599400  0.32278859  0.92231648     0.00000
Br1428     Br  0.23003193  0.35509040  0.87697553     0.00000
C1429       C  0.25692608  0.40303918  0.84351920    -0.01100
C1430       C  0.26703332  0.38771966  0.82535869     0.08600
C1431       C  0.26131929  0.39280670  0.80052854    -0.01200
C1432       C  0.24310694  0.40972204  0.79429924    -0.01200
C1433       C  0.23169355  0.42384675  0.81269509     0.08700
C1434       C  0.23877477  0.42010409  0.83736578    -0.01400
Br1435     Br  0.22258801  0.43748314  0.86345669     0.00000
Br1436     Br  0.26923144  0.40320167  0.87650031     0.00000
Br1437     Br  0.23463691  0.41333648  0.76015059     0.00000
Br1438     Br  0.27940684  0.37702078  0.77458007     0.00000
C1439       C  0.31248584  0.50531274  0.84910027    -0.01100
C1440       C  0.30822413  0.51056798  0.82410704     0.08600
C1441       C  0.32563221  0.50318991  0.80677539    -0.01200
C1442       C  0.34622638  0.48991340  0.81411711    -0.01200
C1443       C  0.35100101  0.48528254  0.83919502     0.08700
C1444       C  0.33360879  0.49283667  0.85665963    -0.01400
Br1445     Br  0.33769258  0.48562970  0.89095373     0.00000
Br1446     Br  0.28884773  0.51519451  0.87308400     0.00000
Br1447     Br  0.36681417  0.47582908  0.78928023     0.00000
Br1448     Br  0.32041570  0.50945042  0.77241786     0.00000
C1449       C  0.17163890  0.58654756  0.74570466    -0.01100
C1450       C  0.14782481  0.58005235  0.73959754     0.08600
C1451       C  0.13891468  0.55733634  0.74804429    -0.01200
C1452       C  0.15201056  0.54334323  0.76533056    -0.01200
C1453       C  0.17546870  0.55072409  0.77299547     0.08700
C1454       C  0.18453355  0.57329759  0.76369002    -0.01400
Br1455     Br  0.21102383  0.58992896  0.77948393     0.00000
Br1456     Br  0.18298285  0.61814877  0.73494284     0.00000
Br1457     Br  0.13474812  0.51794430  0.78283231     0.00000
Br1458     Br  0.10541923  0.54972485  0.74169041     0.00000
C1459       C  0.16032700  0.49771322  0.70061704    -0.01100
C1460       C  0.18419055  0.48902442  0.69703112     0.08600
C1461       C  0.19344344  0.48883773  0.67296626    -0.01200
C1462       C  0.18104561  0.50098541  0.65401188    -0.01200
C1463       C  0.15789311  0.51096312  0.65811432     0.08700
C1464       C  0.14812079  0.51010624  0.68179353    -0.01400
Br1465     Br  0.11522935  0.52075007  0.68648401     0.00000
Br1466     Br  0.14133655  0.48655798  0.72806307     0.00000
Br1467     Br  0.19330067  0.49962659  0.62091592     0.00000
Br1468     Br  0.21917167  0.46659497  0.66451490     0.00000
C1469       C  0.31307980  0.43028351  0.79000826    -0.01100
C1470       C  0.30253986  0.43582486  0.76676435     0.08600
C1471       C  0.31177985  0.42398128  0.74577473    -0.01200
C1472       C  0.33213701  0.40862591  0.74772272    -0.01200
C1473       C  0.34414276  0.40546764  0.77044467     0.08700
C1474       C  0.33362551  0.41533140  0.79156992    -0.01400
Br1475     Br  0.34836829  0.41021704  0.82286315     0.00000
Br1476     Br  0.30146079  0.44396546  0.82065909     0.00000
Br1477     Br  0.34460823  0.39302629  0.71861114     0.00000
Br1478     Br  0.29680723  0.42828539  0.71414913     0.00000
C1479       C  0.23571570  0.55456532  0.68565122    -0.01100
C1480       C  0.24382320  0.56307286  0.70876142     0.08600
C1481       C  0.24211024  0.58843167  0.71383011    -0.01200
C1482       C  0.23177149  0.60446769  0.69660441    -0.01200
C1483       C  0.22432031  0.59572596  0.67356719     0.08700
C1484       C  0.22436774  0.57054447  0.66911748    -0.01400
Br1485     Br  0.21276268  0.55910209  0.63789116     0.00000
Br1486     Br  0.24428765  0.52275859  0.67382165     0.00000
Br1487     Br  0.23254433  0.63949666  0.70187630     0.00000
Br1488     Br  0.25901460  0.60227779  0.74139455     0.00000
C1489       C  0.42399159  0.24639229  0.80472805    -0.01100
C1490       C  0.44957100  0.24751714  0.80418366     0.08600
C1491       C  0.46175119  0.25728163  0.82493227    -0.01200
C1492       C  0.44855552  0.26592225  0.84520749    -0.01200
C1493       C  0.42315216  0.26476802  0.84559855     0.08700
C1494       C  0.41096971  0.25586391  0.82482317    -0.01400
Br1495     Br  0.37625442  0.25552064  0.82432710     0.00000
Br1496     Br  0.40647587  0.22916997  0.77941692     0.00000
Br1497     Br  0.46525339  0.27817560  0.87382111     0.00000
Br1498     Br  0.49653567  0.25863258  0.82699744     0.00000
C1499       C  0.51696234  0.33375874  0.80782169    -0.01100
C1500       C  0.49974274  0.32044145  0.79451946     0.08600
C1501       C  0.47540433  0.32079840  0.80230448    -0.01200
C1502       C  0.46904647  0.33093249  0.82517872    -0.01200
C1503       C  0.48681491  0.34202579  0.83994938     0.08700
C1504       C  0.51045231  0.34500713  0.83013254    -0.01400
Br1505     Br  0.53453961  0.36352619  0.84776175     0.00000
Br1506     Br  0.54937302  0.33649283  0.79528223     0.00000
Br1507     Br  0.43630914  0.32785785  0.83658279     0.00000
Br1508     Br  0.45069549  0.30642351  0.78207396     0.00000
C1509       C  0.58315624  0.19976978  0.74754939    -0.01100
C1510       C  0.56515703  0.20100790  0.72921443     0.08600
C1511       C  0.56497304  0.18257347  0.71083012    -0.01200
C1512       C  0.57794381  0.16098214  0.71448690    -0.01200
C1513       C  0.59681286  0.16057569  0.73130618     0.08700
C1514       C  0.60043682  0.18093942  0.74670273    -0.01400
Br1515     Br  0.62860469  0.18216895  0.76737960     0.00000
Br1516     Br  0.58528163  0.22365983  0.77346239     0.00000
Br1517     Br  0.56701729  0.13071667  0.70035608     0.00000
Br1518     Br  0.54977844  0.18665881  0.67948636     0.00000
C1519       C  0.48842222  0.16754057  0.70121569    -0.01100
C1520       C  0.48068640  0.18371104  0.68280582     0.08600
C1521       C  0.48651078  0.17817649  0.65823629    -0.01200
C1522       C  0.50239374  0.15878681  0.65228339    -0.01200
C1523       C  0.51036013  0.14225408  0.67061696     0.08700
C1524       C  0.50253339  0.14684521  0.69532020    -0.01400
Br1525     Br  0.51170234  0.12623368  0.72273222     0.00000
Br1526     Br  0.48130715  0.17459339  0.73524586     0.00000
Br1527     Br  0.51453737  0.15726797  0.61925911     0.00000
Br1528     Br  0.47212790  0.19744746  0.63251718     0.00000
C1529       C  0.59681828  0.24652572  0.69005149    -0.01100
C1530       C  0.60136845  0.23967930  0.66554581     0.08600
C1531       C  0.58430664  0.24595745  0.64753066    -0.01200
C1532       C  0.56461494  0.26117691  0.65344279    -0.01200
C1533       C  0.56137218  0.27000316  0.67765470     0.08700
C1534       C  0.57798822  0.26275951  0.69588057    -0.01400
Br1535     Br  0.57627313  0.27563416  0.72878754     0.00000
Br1536     Br  0.61907775  0.23613005  0.71512659     0.00000
Br1537     Br  0.54344861  0.27181630  0.62746159     0.00000
Br1538     Br  0.58838950  0.23491635  0.61431733     0.00000
C1539       C  0.41297670  0.32071095  0.72261181    -0.01100
C1540       C  0.43792303  0.32341181  0.71773978     0.08600
C1541       C  0.45019358  0.34392471  0.72780910    -0.01200
C1542       C  0.43873604  0.35878641  0.74529040    -0.01200
C1543       C  0.41386687  0.35613141  0.75026882     0.08700
C1544       C  0.40100071  0.33695312  0.73867770    -0.01400
Br1545     Br  0.36686686  0.33284142  0.74410170     0.00000
Br1546     Br  0.39462999  0.29601444  0.70535371     0.00000
Br1547     Br  0.45752672  0.38275647  0.76321260     0.00000
Br1548     Br  0.48219293  0.35354606  0.71718373     0.00000
C1549       C  0.39777664  0.78659449  0.26124264    -0.01100
C1550       C  0.41743946  0.79348239  0.24638492     0.08600
C1551       C  0.42183424  0.81847339  0.24214822    -0.01200
C1552       C  0.40883560  0.83630369  0.25516586    -0.01200
C1553       C  0.38927096  0.82956575  0.27036618     0.08700
C1554       C  0.38382773  0.80449130  0.27321565    -0.01400
Br1555     Br  0.35614880  0.79499706  0.29243131     0.00000
Br1556     Br  0.38817088  0.75276675  0.26221349     0.00000
Br1557     Br  0.41726777  0.87012967  0.25104550     0.00000
Br1558     Br  0.44447791  0.82833715  0.21712870     0.00000
C1559       C  0.48639298  0.85804892  0.28264885    -0.01100
C1560       C  0.50061624  0.83777427  0.28933710     0.08600
C1561       C  0.50521774  0.83370081  0.31435458    -0.01200
C1562       C  0.49448037  0.84861490  0.33241700    -0.01200
C1563       C  0.47988334  0.86870392  0.32585786     0.08700
C1564       C  0.47595936  0.87322420  0.30069467    -0.01400
Br1565     Br  0.45893469  0.90246317  0.29110948     0.00000
Br1566     Br  0.48431695  0.86700063  0.24866427     0.00000
Br1567     Br  0.50228765  0.84327132  0.36625745     0.00000
Br1568     Br  0.52772378  0.80872859  0.32392883     0.00000
C1569       C  0.56612769  0.77170591  0.16963880    -0.01100
C1570       C  0.54255584  0.76236730  0.17239851     0.08600
C1571       C  0.53611886  0.74103085  0.15909107    -0.01200
C1572       C  0.55362433  0.72774358  0.14599582    -0.01200
C1573       C  0.57682538  0.73738440  0.14254622     0.08700
C1574       C  0.58304455  0.75943836  0.15477066    -0.01400
Br1575     Br  0.61368028  0.77492105  0.14855554     0.00000
Br1576     Br  0.57422891  0.80317216  0.18362932     0.00000
Br1577     Br  0.54539846  0.69749536  0.12980511     0.00000
Br1578     Br  0.50295330  0.73190060  0.15476612     0.00000
C1579       C  0.46984469  0.76556337  0.35158795    -0.01100
C1580       C  0.46292164  0.75130665  0.33127496     0.08600
C1581       C  0.43823501  0.74759329  0.32653163    -0.01200
C1582       C  0.42075185  0.75957828  0.34072105    -0.01200
C1583       C  0.42764087  0.77327478  0.36144338     0.08700
C1584       C  0.45230613  0.77736228  0.36595084    -0.01400
Br1585     Br  0.46151650  0.79605872  0.39439624     0.00000
Br1586     Br  0.50285957  0.76484958  0.36228184     0.00000
Br1587     Br  0.38696223  0.75338601  0.33496953     0.00000
Br1588     Br  0.42830485  0.72404895  0.30224893     0.00000
C1589       C  0.48332486  0.68004738  0.17821599    -0.01100
C1590       C  0.49139515  0.68004487  0.20265638     0.08600
C1591       C  0.51106446  0.66468032  0.20895804    -0.01200
C1592       C  0.52296708  0.65079463  0.19086297    -0.01200
C1593       C  0.51525165  0.65156077  0.16644694     0.08700
C1594       C  0.49654976  0.66790255  0.15995773    -0.01400
Br1595     Br  0.48565430  0.66931531  0.12633498     0.00000
Br1596     Br  0.45226457  0.69393354  0.17027184     0.00000
Br1597     Br  0.54813961  0.62814391  0.19964463     0.00000
Br1598     Br  0.52037916  0.65978376  0.24246792     0.00000
C1599       C  0.59016894  0.71476538  0.23433303    -0.01100
C1600       C  0.57418974  0.70902140  0.25390772     0.08600
C1601       C  0.57399031  0.68477111  0.26281685    -0.01200
C1602       C  0.58699042  0.66626595  0.25069539    -0.01200
C1603       C  0.60415438  0.67217109  0.23243491     0.08700
C1604       C  0.60548851  0.69662145  0.22435048    -0.01400
Br1605     Br  0.63038132  0.70552443  0.20124730     0.00000
Br1606     Br  0.59251949  0.74746101  0.22145019     0.00000
Br1607     Br  0.58370633  0.63290823  0.26158740     0.00000
Br1608     Br  0.55831138  0.67732756  0.29362937     0.00000
C1609       C  0.07698446  0.08848239  0.98745209    -0.01100
C1610       C  0.07396790  0.06352732  0.98075095     0.08600
C1611       C  0.09035079  0.04626832  0.99036092    -0.01200
C1612       C  0.10837792  0.05365142  0.00698396    -0.01200
C1613       C  0.11322420  0.07871318  0.01146496     0.08700
C1614       C  0.09651319  0.09605442  0.00247311    -0.01400
Br1615     Br  0.09899492  0.13003999  0.01133035     0.00000
Br1616     Br  0.05481022  0.11283748  0.97520329     0.00000
Br1617     Br  0.12615603  0.02898686  0.02468512     0.00000
Br1618     Br  0.08861901  0.01210077  0.98136864     0.00000
C1619       C  0.99173131  0.09795920  0.06110297    -0.01100
C1620       C  0.98260120  0.07388200  0.06002114     0.08600
C1621       C  0.98441917  0.05882517  0.08072839    -0.01200
C1622       C  0.99806265  0.06647685  0.10113730    -0.01200
C1623       C  0.00817505  0.09056404  0.10223056     0.08700
C1624       C  0.00399499  0.10654011  0.08208551    -0.01400
Br1625     Br  0.01554691  0.13994577  0.08150378     0.00000
Br1626     Br  0.99023734  0.11793841  0.03192260     0.00000
Br1627     Br  0.00643957  0.04162988  0.12489331     0.00000
Br1628     Br  0.97219183  0.02561929  0.07893412     0.00000
C1629       C  0.10412065  0.99760830  0.07675863    -0.01100
C1630       C  0.10123790  0.01484427  0.09596266     0.08600
C1631       C  0.08091551  0.03000682  0.09584800    -0.01200
C1632       C  0.06590115  0.03026713  0.07519849    -0.01200
C1633       C  0.06676470  0.01101358  0.05789382     0.08700
C1634       C  0.08588922  0.99434913  0.05906714    -0.01400
Br1635     Br  0.08810809  0.96833315  0.03537678     0.00000
Br1636     Br  0.13325840  0.97874877  0.07410147     0.00000
Br1637     Br  0.04700160  0.05883112  0.06939687     0.00000
Br1638     Br  0.07169362  0.04796709  0.12481045     0.00000
C1639       C  0.89413095  0.94482534  0.99426092    -0.01100
C1640       C  0.90119333  0.92187176  0.98456439     0.08600
C1641       C  0.92587264  0.91599105  0.98464992    -0.01200
C1642       C  0.94305253  0.93189724  0.99542527    -0.01200
C1643       C  0.93610879  0.95515953  0.00454936     0.08700
C1644       C  0.91129801  0.96103991  0.00452605    -0.01400
Br1645     Br  0.90033381  0.98937327  0.02240184     0.00000
Br1646     Br  0.86008073  0.95230197  0.99680145     0.00000
Br1647     Br  0.97566293  0.92038300  0.99906584     0.00000
Br1648     Br  0.93569304  0.88469853  0.97187949     0.00000
C1649       C  0.90770481  0.99755842  0.92835938    -0.01100
C1650       C  0.90977575  0.99250491  0.90328786     0.08600
C1651       C  0.93082925  0.00009819  0.89102698    -0.01200
C1652       C  0.94849432  0.01445253  0.90312983    -0.01200
C1653       C  0.94467311  0.02243045  0.92764086     0.08700
C1654       C  0.92301461  0.01484350  0.93951404    -0.01400
Br1655     Br  0.91210412  0.02901479  0.96999369     0.00000
Br1656     Br  0.88005179  0.98475593  0.94548678     0.00000
Br1657     Br  0.97656865  0.02480939  0.88488398     0.00000
Br1658     Br  0.93400340  0.99215383  0.85684525     0.00000
C1659       C  0.98151389  0.94354871  0.93663356    -0.01100
C1660       C  0.00556654  0.94074542  0.94455274     0.08600
C1661       C  0.01817659  0.91958998  0.93779391    -0.01200
C1662       C  0.00772088  0.90330449  0.92065082    -0.01200
C1663       C  0.98540931  0.90890117  0.90943840     0.08700
C1664       C  0.97145567  0.92778601  0.91921969    -0.01400
Br1665     Br  0.93887159  0.93277984  0.90818443     0.00000
Br1666     Br  0.96231429  0.96968452  0.94898358     0.00000
Br1667     Br  0.02341182  0.87309772  0.91284918     0.00000
Br1668     Br  0.04980672  0.91375477  0.95085889     0.00000
C1669       C  0.99655548  0.54988628  0.58627884    -0.01100
C1670       C  0.98980824  0.55500551  0.56194550     0.08600
C1671       C  0.99580153  0.57797342  0.55196610    -0.01200
C1672       C  0.00965824  0.59488343  0.56557690    -0.01200
C1673       C  0.01603464  0.58992554  0.59012173     0.08700
C1674       C  0.01047684  0.56672065  0.59985773    -0.01400
Br1675     Br  0.01791694  0.56030478  0.63370646     0.00000
Br1676     Br  0.98271678  0.52178946  0.60224752     0.00000
Br1677     Br  0.01600686  0.62704485  0.55254783     0.00000
Br1678     Br  0.98246753  0.58731513  0.52085319     0.00000
C1679       C  0.10493390  0.50428691  0.56952162    -0.01100
C1680       C  0.09461898  0.50974327  0.59250961     0.08600
C1681       C  0.07009878  0.50408605  0.59651160    -0.01200
C1682       C  0.05636154  0.49239759  0.57820845    -0.01200
C1683       C  0.06643579  0.48753099  0.55506196     0.08700
C1684       C  0.09107534  0.49268601  0.55118668    -0.01400
Br1685     Br  0.10686663  0.47839691  0.52336654     0.00000
Br1686     Br  0.13947331  0.50779747  0.56558163     0.00000
Br1687     Br  0.02481023  0.47991850  0.58591701     0.00000
Br1688     Br  0.05681330  0.50839500  0.62885564     0.00000
C1689       C  0.96570270  0.41432427  0.41303291    -0.01100
C1690       C  0.98100910  0.39869947  0.40001525     0.08600
C1691       C  0.00506435  0.39561376  0.40849785    -0.01200
C1692       C  0.01456576  0.41105895  0.42692269    -0.01200
C1693       C  0.00014527  0.42963196  0.43683488     0.08700
C1694       C  0.97529976  0.43014343  0.43088659    -0.01400
Br1695     Br  0.95432460  0.45335709  0.44626474     0.00000
Br1696     Br  0.93197724  0.41554850  0.40455473     0.00000
Br1697     Br  0.04772453  0.40840884  0.43698320     0.00000
Br1698     Br  0.02613062  0.37289169  0.39214148     0.00000
C1699       C  0.08218675  0.54754644  0.49455982    -0.01100
C1700       C  0.06028296  0.55951333  0.48973129     0.08600
C1701       C  0.05750522  0.58396233  0.49761097    -0.01200
C1702       C  0.07571602  0.59572516  0.51137443    -0.01200
C1703       C  0.09746220  0.58359203  0.51657821     0.08700
C1704       C  0.09993176  0.55893520  0.50913364    -0.01400
Br1705     Br  0.13037671  0.54288111  0.51431770     0.00000
Br1706     Br  0.08957338  0.51733393  0.47803926     0.00000
Br1707     Br  0.07284300  0.62987029  0.51968923     0.00000
Br1708     Br  0.03098537  0.60275086  0.48510985     0.00000
C1709       C  0.95440075  0.49844318  0.40378940    -0.01100
C1710       C  0.94369910  0.50926535  0.42495399     0.08600
C1711       C  0.91827654  0.50726558  0.42756490    -0.01200
C1712       C  0.90440446  0.49319015  0.41093354    -0.01200
C1713       C  0.91490647  0.48335440  0.38967187     0.08700
C1714       C  0.94014699  0.48519810  0.38688911    -0.01400
Br1715     Br  0.95488381  0.47027337  0.35849505     0.00000
Br1716     Br  0.98844203  0.50166963  0.39638455     0.00000
Br1717     Br  0.87069125  0.48742699  0.41708432     0.00000
Br1718     Br  0.90160833  0.52649281  0.45184217     0.00000
C1719       C  0.94775186  0.41218476  0.49084163    -0.01100
C1720       C  0.93787793  0.43332261  0.50236152     0.08600
C1721       C  0.91290880  0.43803058  0.49914402    -0.01200
C1722       C  0.89856810  0.42246689  0.48446292    -0.01200
C1723       C  0.90840810  0.40128408  0.47384563     0.08700
C1724       C  0.93342017  0.39757739  0.47528987    -0.01400
Br1725     Br  0.94675607  0.36887340  0.45967268     0.00000
Br1726     Br  0.98025349  0.40113290  0.49700634     0.00000
Br1727     Br  0.86426361  0.42756268  0.48180263     0.00000
Br1728     Br  0.89722745  0.46359820  0.51757602     0.00000
C1729       C  0.61275413  0.03209442  0.55028025    -0.01100
C1730       C  0.61864481  0.02190988  0.57312158     0.08600
C1731       C  0.60858410  0.99880048  0.57927836    -0.01200
C1732       C  0.59288792  0.98634143  0.56305389    -0.01200
C1733       C  0.58648642  0.99685997  0.54040226     0.08700
C1734       C  0.59777292  0.01933936  0.53366850    -0.01400
Br1735     Br  0.59553972  0.03218281  0.50093041     0.00000
Br1736     Br  0.62718341  0.06301901  0.54102186     0.00000
Br1737     Br  0.58209532  0.95359498  0.57085367     0.00000
Br1738     Br  0.61829399  0.98272911  0.60899253     0.00000
C1739       C  0.55590156  0.10993549  0.53520854    -0.01100
C1740       C  0.57695110  0.11704610  0.52279027     0.08600
C1741       C  0.58196574  0.10629231  0.49973031    -0.01200
C1742       C  0.56610693  0.08886047  0.48932558    -0.01200
C1743       C  0.54476460  0.08189668  0.50167591     0.08700
C1744       C  0.53951644  0.09332663  0.52442087    -0.01400
Br1745     Br  0.50908787  0.08849532  0.54049095     0.00000
Br1746     Br  0.54865757  0.12472389  0.56645524     0.00000
Br1747     Br  0.57218644  0.07686062  0.45663817     0.00000
Br1748     Br  0.60925343  0.11760984  0.48086880     0.00000
C1749       C  0.48910160  0.06102103  0.59020407    -0.01100
C1750       C  0.50223221  0.04004756  0.58327177     0.08600
C1751       C  0.52540972  0.03656346  0.59392725    -0.01200
C1752       C  0.53571555  0.05429029  0.60958531    -0.01200
C1753       C  0.52276662  0.07531576  0.61616434     0.08700
C1754       C  0.49918798  0.07837659  0.60649677    -0.01400
Br1755     Br  0.47921962  0.10496569  0.61756917     0.00000
Br1756     Br  0.45645990  0.06535371  0.57867006     0.00000
Br1757     Br  0.56717553  0.04885620  0.62388464     0.00000
Br1758     Br  0.54333593  0.00702811  0.58892882     0.00000
C1759       C  0.41601706  0.98829873  0.46162626    -0.01100
C1760       C  0.43265715  0.00518329  0.45182015     0.08600
C1761       C  0.43072589  0.01170075  0.42703018    -0.01200
C1762       C  0.41302990  0.00068664  0.41204374    -0.01200
C1763       C  0.39679065  0.98310681  0.42175918     0.08700
C1764       C  0.39895725  0.97653816  0.44651223    -0.01400
Br1765     Br  0.37628029  0.95334994  0.45996408     0.00000
Br1766     Br  0.41458765  0.98387975  0.49630271     0.00000
Br1767     Br  0.40860818  0.01246902  0.37911194     0.00000
Br1768     Br  0.44952010  0.03887061  0.41504765     0.00000
C1769       C  0.43213171  0.92864982  0.52133990    -0.01100
C1770       C  0.45540727  0.92231060  0.51397885     0.08600
C1771       C  0.45826613  0.90216810  0.49800035    -0.01200
C1772       C  0.43787345  0.88924199  0.48894802    -0.01200
C1773       C  0.41431119  0.89758464  0.49410243     0.08700
C1774       C  0.41184366  0.91809593  0.50999183    -0.01400
Br1775     Br  0.38018213  0.92937003  0.51969468     0.00000
Br1776     Br  0.42871322  0.95135857  0.54816475     0.00000
Br1777     Br  0.44200740  0.85884796  0.47154914     0.00000
Br1778     Br  0.49028368  0.89115990  0.49050220     0.00000
C1779       C  0.51191491  0.92881265  0.42849725    -0.01100
C1780       C  0.51250056  0.95466492  0.42759528     0.08600
C1781       C  0.49715179  0.96671584  0.41098747    -0.01200
C1782       C  0.48078945  0.95312029  0.39653313    -0.01200
C1783       C  0.48100783  0.92728267  0.39671458     0.08700
C1784       C  0.49516493  0.91544699  0.41442000    -0.01400
Br1785     Br  0.49259421  0.88059407  0.41818971     0.00000
Br1786     Br  0.53610159  0.91160439  0.44710792     0.00000
Br1787     Br  0.46004134  0.96940494  0.37355127     0.00000
Br1788     Br  0.50014652  0.00143844  0.40598109     0.00000
C1789       C  0.59410989  0.54150729  0.00730300    -0.01100
C1790       C  0.57201846  0.54555914  0.99498062     0.08600
C1791       C  0.56401041  0.56987939  0.99187048    -0.01200
C1792       C  0.57694648  0.58950101  0.00250515    -0.01200
C1793       C  0.59917831  0.58550372  0.01450991     0.08700
C1794       C  0.60760275  0.56131400  0.01674218    -0.01400
Br1795     Br  0.63987360  0.55601991  0.02878991     0.00000
Br1796     Br  0.60757073  0.50896271  0.00846228     0.00000
Br1797     Br  0.56652132  0.62273850  0.99697349     0.00000
Br1798     Br  0.53668505  0.57695822  0.97119838     0.00000
C1799       C  0.51438829  0.60045089  0.07710293    -0.01100
C1800       C  0.51399043  0.58897371  0.10021962     0.08600
C1801       C  0.50557298  0.56448689  0.10197932    -0.01200
C1802       C  0.49603724  0.55247203  0.08145251    -0.01200
C1803       C  0.49682051  0.56368938  0.05828944     0.08700
C1804       C  0.50657193  0.58753368  0.05611531    -0.01400
Br1805     Br  0.50715100  0.60328868  0.02466254     0.00000
Br1806     Br  0.52282419  0.63462816  0.07451327     0.00000
Br1807     Br  0.48104864  0.52072777  0.08546102     0.00000
Br1808     Br  0.50364201  0.54849031  0.13366211     0.00000
C1809       C  0.57620812  0.46847922  0.07492355    -0.01100
C1810       C  0.55287447  0.47658802  0.08058494     0.08600
C1811       C  0.55092207  0.49399956  0.09942193    -0.01200
C1812       C  0.57027579  0.51012707  0.10452583    -0.01200
C1813       C  0.59334996  0.50495845  0.09500061     0.08700
C1814       C  0.59636883  0.48125659  0.08431563    -0.01400
Br1815     Br  0.62670250  0.46412523  0.08601356     0.00000
Br1816     Br  0.58075214  0.44076287  0.05373401     0.00000
Br1817     Br  0.56474623  0.53864215  0.12411881     0.00000
Br1818     Br  0.52363902  0.49141919  0.12062322     0.00000
C1819       C  0.39723233  0.44149897  0.97528617    -0.01100
C1820       C  0.39452732  0.41598322  0.97666453     0.08600
C1821       C  0.41161941  0.40275702  0.99045056    -0.01200
C1822       C  0.42924645  0.41521313  0.00476069    -0.01200
C1823       C  0.42958897  0.44125362  0.00606137     0.08700
C1824       C  0.41240588  0.45411978  0.99164900    -0.01400
Br1825     Br  0.40686565  0.48882305  0.99493579     0.00000
Br1826     Br  0.37844087  0.45915655  0.95135694     0.00000
Br1827     Br  0.45114974  0.39608300  0.02437334     0.00000
Br1828     Br  0.41160626  0.36760415  0.98893797     0.00000
C1829       C  0.42715796  0.51424756  0.92572028    -0.01100
C1830       C  0.44368934  0.49836867  0.93676586     0.08600
C1831       C  0.44331041  0.47336485  0.93022143    -0.01200
C1832       C  0.42960414  0.46502482  0.91021001    -0.01200
C1833       C  0.41412435  0.48115459  0.89783201     0.08700
C1834       C  0.41193871  0.50555004  0.90680447    -0.01400
Br1835     Br  0.38898480  0.52772088  0.89243367     0.00000
Br1836     Br  0.42644621  0.54805498  0.93560498     0.00000
Br1837     Br  0.43367229  0.43189570  0.89914223     0.00000
Br1838     Br  0.46076047  0.45005283  0.94957128     0.00000
C1839       C  0.49110906  0.38215709  0.94270096    -0.01100
C1840       C  0.48979529  0.38568850  0.91724091     0.08600
C1841       C  0.49960464  0.40733609  0.90720223    -0.01200
C1842       C  0.51099285  0.42495850  0.92238183    -0.01200
C1843       C  0.51349332  0.42088619  0.94811918     0.08700
C1844       C  0.50427156  0.39840208  0.95769811    -0.01400
Br1845     Br  0.51021578  0.38788062  0.99100990     0.00000
Br1846     Br  0.47383801  0.35493758  0.95716511     0.00000
Br1847     Br  0.52298013  0.45436745  0.90667804     0.00000
Br1848     Br  0.49767463  0.41308188  0.87236816     0.00000
loop_ 
_geom_bond_atom_site_label_1 
_geom_bond_atom_site_label_2 
_geom_bond_distance 
_geom_bond_site_symmetry_2 
_ccdc_geom_bond_type 
Zn1           O5   1.919   1_556  S
Zn1           O6   2.101       .  S
Zn1          O10   2.022       .  S
Zn1          O17   2.024       .  S
Zn2           O5   1.849       .  S
Zn2           O7   1.964       .  S
Zn2           O9   1.937       .  S
Zn2          O13   1.956       .  S
Zn3           O5   1.923       .  S
Zn3           O8   2.037   1_554  S
Zn3          O11   2.089       .  S
Zn3          O14   2.036       .  S
Zn4           O5   1.911       .  S
Zn4          O12   2.036       .  S
Zn4          O15   2.129       .  S
Zn4          O16   2.010   1_554  S
O6           C18   1.283       .  A
O7           C19   1.262       .  A
O8           C20   1.276       .  A
O9           C18   1.262   1_554  A
O10          C20   1.276       .  A
O11          C19   1.284       .  A
O12          C21   1.278       .  A
O13          C22   1.265       .  A
O14          C21   1.278       .  A
O15          C22   1.286       .  A
O16          C23   1.274       .  A
O17          C23   1.275       .  A
C18        C1790   1.493       .  S
C19        C1803   1.481       .  S
C20        C1830   1.489       .  S
C21        C1823   1.515       .  S
C22        C1810   1.494       .  S
C23        C1843   1.518       .  S
Zn24         O28   1.905       .  S
Zn24         O29   2.041       .  S
Zn24         O33   2.114       .  S
Zn24         O40   2.045       .  S
Zn25         O28   1.912   1_565  S
Zn25         O30   2.152       .  S
Zn25         O32   2.034   1_565  S
Zn25         O36   2.050       .  S
Zn26         O28   1.821   1_565  S
Zn26         O31   1.972       .  S
Zn26         O34   1.894       .  S
Zn26         O37   1.936       .  S
Zn27         O28   1.939       .  S
Zn27         O35   2.113   1_545  S
Zn27         O38   2.016   1_545  S
Zn27         O39   2.016       .  S
O29          C41   1.281       .  A
O30          C42   1.289       .  A
O31          C43   1.269   1_565  A
O32          C41   1.278       .  A
O33          C43   1.288       .  A
O34          C42   1.259       .  A
O35          C44   1.278       .  A
O36          C45   1.282       .  A
O37          C44   1.252       .  A
O38          C45   1.276       .  A
O39          C46   1.275       .  A
O40          C46   1.278       .  A
C41        C1750   1.508       .  S
C42        C1770   1.480       .  S
C43        C1760   1.485       .  S
C44        C1780   1.488       .  S
C45        C1733   1.507       .  S
C46        C1743   1.503       .  S
Zn47         O51   1.905       .  S
Zn47         O52   2.007       .  S
Zn47         O56   2.045       .  S
Zn47         O63   2.125       .  S
Zn48         O51   1.918   1_455  S
Zn48         O53   2.030       .  S
Zn48         O55   2.025   1_455  S
Zn48         O59   2.113       .  S
Zn49         O51   1.895   1_455  S
Zn49         O54   2.023   1_455  S
Zn49         O57   2.045       .  S
Zn49         O60   2.104       .  S
Zn50         O51   1.823   1_455  S
Zn50         O58   1.954       .  S
Zn50         O61   1.967       .  S
Zn50         O62   1.940       .  S
O52          C64   1.276       .  A
O53          C65   1.278       .  A
O54          C66   1.274       .  A
O55          C64   1.277       .  A
O56          C66   1.278       .  A
O57          C65   1.282       .  A
O58          C67   1.263       .  A
O59          C68   1.284       .  A
O60          C67   1.286       .  A
O61          C68   1.262       .  A
O62          C69   1.260   1_455  A
O63          C69   1.287       .  A
C64        C1720   1.504       .  S
C65        C1693   1.489       .  S
C66        C1710   1.514       .  S
C67        C1700   1.489       .  S
C68        C1683   1.488       .  S
C69        C1670   1.484       .  S
Zn70         O74   1.877   1_554  S
Zn70         O75   1.941   1_554  S
Zn70         O79   1.968       .  S
Zn70         O86   1.888       .  S
Zn71         O74   1.942       .  S
Zn71         O76   2.000   1_545  S
Zn71         O78   2.102       .  S
Zn71         O82   2.029   1_455  S
Zn72         O74   1.931   1_564  S
Zn72         O77   2.102       .  S
Zn72         O80   2.049   1_554  S
Zn72         O83   2.081   1_455  S
Zn73         O74   1.915   1_655  S
Zn73         O81   2.014   1_545  S
Zn73         O84   2.022       .  S
Zn73         O85   2.083   1_556  S
O75          C87   1.255       .  A
O76          C88   1.273       .  A
O77          C89   1.289   1_565  A
O78          C87   1.277       .  A
O79          C89   1.270       .  A
O80          C88   1.277       .  A
O81          C90   1.275   1_556  A
O82          C91   1.279       .  A
O83          C90   1.283       .  A
O84          C91   1.277       .  A
O85          C92   1.279       .  A
O86          C92   1.256   1_455  A
C87        C1610   1.501       .  S
C88        C1660   1.483       .  S
C89        C1633   1.484       .  S
C90        C1643   1.506       .  S
C91        C1653   1.506       .  S
C92        C1620   1.470       .  S
Zn93         O97   1.898       .  S
Zn93         O98   1.987       .  S
Zn93        O102   2.018       .  S
Zn93        O109   2.078       .  S
Zn94         O97   1.902       .  S
Zn94         O99   1.982       .  S
Zn94        O101   2.024       .  S
Zn94        O105   2.080       .  S
Zn95         O97   1.909       .  S
Zn95        O100   2.004       .  S
Zn95        O103   2.058       .  S
Zn95        O106   2.124       .  S
Zn96         O97   1.823       .  S
Zn96        O104   1.954       .  S
Zn96        O107   1.953       .  S
Zn96        O108   1.960       .  S
O98         C110   1.273       .  A
O99         C111   1.273       .  A
O100        C112   1.276       .  A
O101        C110   1.276       .  A
O102        C112   1.276       .  A
O103        C111   1.281       .  A
O104        C113   1.263       .  A
O105        C114   1.282       .  A
O106        C113   1.288       .  A
O107        C114   1.262       .  A
O108        C115   1.264       .  A
O109        C115   1.282       .  A
C110       C1590   1.494       .  S
C111       C1600   1.502       .  S
C112       C1570   1.496       .  S
C113       C1560   1.491       .  S
C114       C1580   1.473       .  S
C115       C1550   1.478       .  S
Zn116       O120   1.918       .  S
Zn116       O121   2.074       .  S
Zn116       O125   2.007       .  S
Zn116       O132   1.999       .  S
Zn117       O120   1.899       .  S
Zn117       O122   1.984       .  S
Zn117       O124   1.943       .  S
Zn117       O128   1.948       .  S
Zn118       O120   1.929       .  S
Zn118       O123   2.070       .  S
Zn118       O126   2.068       .  S
Zn118       O129   2.036       .  S
Zn119       O120   1.889       .  S
Zn119       O127   2.013       .  S
Zn119       O130   2.109       .  S
Zn119       O131   2.031       .  S
O121        C133   1.274       .  A
O122        C134   1.272       .  A
O123        C135   1.281       .  A
O124        C133   1.256       .  A
O125        C135   1.270       .  A
O126        C134   1.285       .  A
O127        C136   1.273       .  A
O128        C137   1.259       .  A
O129        C136   1.275       .  A
O130        C137   1.283       .  A
O131        C138   1.282       .  A
O132        C138   1.276       .  A
C133       C1533   1.494       .  S
C134       C1510   1.495       .  S
C135       C1500   1.488       .  S
C136       C1490   1.503       .  S
C137       C1520   1.497       .  S
C138       C1540   1.498       .  S
Zn139       O143   1.929       .  S
Zn139       O144   2.097       .  S
Zn139       O148   2.055       .  S
Zn139       O155   2.069       .  S
Zn140       O143   1.890       .  S
Zn140       O145   1.944       .  S
Zn140       O147   1.952       .  S
Zn140       O151   1.940       .  S
Zn141       O143   1.895       .  S
Zn141       O146   1.999       .  S
Zn141       O149   2.127       .  S
Zn141       O152   2.039       .  S
Zn142       O143   1.924       .  S
Zn142       O150   2.018       .  S
Zn142       O153   2.099       .  S
Zn142       O154   1.968       .  S
O144        C156   1.288       .  A
O145        C157   1.258       .  A
O146        C158   1.271       .  A
O147        C156   1.265       .  A
O148        C158   1.280       .  A
O149        C157   1.284       .  A
O150        C159   1.281       .  A
O151        C160   1.255       .  A
O152        C159   1.284       .  A
O153        C160   1.272       .  A
O154        C161   1.267       .  A
O155        C161   1.281       .  A
C156       C1470   1.501       .  S
C157       C1440   1.495       .  S
C158       C1480   1.501       .  S
C159       C1453   1.522       .  S
C160       C1433   1.505       .  S
C161       C1460   1.503       .  S
Zn162       O166   2.001       .  S
Zn162       O167   2.072       .  S
Zn162       O171   2.081       .  S
Zn162       O178   2.111       .  S
Zn163       O166   1.990       .  S
Zn163       O168   2.054       .  S
Zn163       O170   2.093       .  S
Zn163       O174   2.068       .  S
Zn164       O166   2.015       .  S
Zn164       O169   2.132       .  S
Zn164       O172   2.121       .  S
Zn164       O175   2.084       .  S
Zn165       O166   2.013       .  S
Zn165       O173   2.142       .  S
Zn165       O176   2.128       .  S
Zn165       O177   2.064       .  S
O167        C179   1.282       .  A
O168        C180   1.281       .  A
O169        C181   1.288       .  A
O170        C179   1.281       .  A
O171        C181   1.283       .  A
O172        C180   1.285       .  A
O173        C182   1.289       .  A
O174        C183   1.283       .  A
O175        C182   1.284       .  A
O176        C183   1.285       .  A
O177        C184   1.282       .  A
O178        C184   1.283       .  A
C179        N199   1.455       .  S
C180        N206   1.457       .  S
C181        N213   1.463       .  S
C182        N185   1.471       .  S
C183        N192   1.462       .  S
C184        N220   1.457       .  S
N185        C189   1.379       .  A
N185        C186   1.378       .  A
C186       C1420   1.493       .  S
C186        C187   1.372       .  A
C187        C188   1.346       .  A
C187        H190   1.084       .  S
C188        C189   1.389       .  A
C188        H191   1.081       .  S
C189       C1430   1.514       .  S
N192        C196   1.374       .  A
N192        C193   1.375       .  A
C193       C1833   1.499       .  S
C193        C194   1.378       .  A
C194        C195   1.357       .  A
C194        H197   1.082       .  S
C195        C196   1.384       .  A
C195        H198   1.081       .  S
C196       C1443   1.510       .  S
N199        C203   1.372       .  A
N199        C200   1.369       .  A
C200       C1840   1.497       .  S
C200        C201   1.381       .  A
C201        C202   1.359       .  A
C201        H204   1.082       .  S
C202        C203   1.382       .  A
C202        H205   1.082       .  S
C203       C1503   1.499       .  S
N206        C210   1.371       .  A
N206        C207   1.376       .  A
C207       C1473   1.495       .  S
C207        C208   1.378       .  A
C208        C209   1.351       .  A
C208        H211   1.082       .  S
C209        C210   1.382       .  A
C209        H212   1.082       .  S
C210       C1543   1.494       .  S
N213        C217   1.372       .  A
N213        C214   1.373       .  A
C214       C1410   1.479       .  S
C214        C215   1.379       .  A
C215        C216   1.352       .  A
C215        H218   1.085       .  S
C216        C217   1.381       .  A
C216        H219   1.083       .  S
C217       C1493   1.483       .  S
N220        C224   1.374       .  A
N220        C221   1.373       .  A
C221       C1820   1.501       .  S
C221        C222   1.384       .  A
C222        C223   1.353       .  A
C222        H225   1.081       .  S
C223        C224   1.377       .  A
C223        H226   1.080       .  S
C224       C1403   1.486       .  S
Zn227       O231   1.916   1_554  S
Zn227       O232   2.114       .  S
Zn227       O236   2.027       .  S
Zn227       O243   2.001       .  S
Zn228       O231   1.816       .  S
Zn228       O233   1.928       .  S
Zn228       O235   1.936       .  S
Zn228       O239   1.944       .  S
Zn229       O231   1.906       .  S
Zn229       O234   2.006   1_556  S
Zn229       O237   2.110       .  S
Zn229       O240   2.035       .  S
Zn230       O231   1.919       .  S
Zn230       O238   2.015       .  S
Zn230       O241   2.116       .  S
Zn230       O242   2.036       .  S
O232        C244   1.282       .  A
O233        C245   1.263       .  A
O234        C246   1.276       .  A
O235        C244   1.258   1_556  A
O236        C246   1.277       .  A
O237        C245   1.284       .  A
O238        C247   1.277       .  A
O239        C248   1.260       .  A
O240        C247   1.278       .  A
O241        C248   1.284       .  A
O242        C249   1.278   1_556  A
O243        C249   1.276       .  A
C244       C1400   1.478   1_554  S
C245       C1413   1.475       .  S
C246       C1390   1.500       .  S
C247       C1370   1.504       .  S
C248       C1423   1.480       .  S
C249       C1383   1.497       .  S
Zn250       O254   1.929       .  S
Zn250       O255   2.051       .  S
Zn250       O259   1.997       .  S
Zn250       O266   2.139       .  S
Zn251       O254   1.911       .  S
Zn251       O256   2.035       .  S
Zn251       O258   2.013       .  S
Zn251       O262   2.106       .  S
Zn252       O254   1.924       .  S
Zn252       O257   2.048       .  S
Zn252       O260   2.080       .  S
Zn252       O263   2.128       .  S
Zn253       O254   1.820       .  S
Zn253       O261   1.946       .  S
Zn253       O264   1.948       .  S
Zn253       O265   1.887       .  S
O255        C267   1.284       .  A
O256        C268   1.279       .  A
O257        C269   1.282       .  A
O258        C267   1.275       .  A
O259        C269   1.272       .  A
O260        C268   1.283       .  A
O261        C270   1.263       .  A
O262        C271   1.280       .  A
O263        C270   1.286       .  A
O264        C271   1.259       .  A
O265        C272   1.257       .  A
O266        C272   1.286       .  A
C267       C1340   1.520       .  S
C268       C1320   1.513       .  S
C269       C1310   1.480       .  S
C270       C1333   1.501       .  S
C271       C1363   1.499       .  S
C272       C1350   1.481       .  S
Zn273       O277   1.906       .  S
Zn273       O278   2.008       .  S
Zn273       O282   2.099       .  S
Zn273       O289   2.032       .  S
Zn274       O277   1.929       .  S
Zn274       O279   2.109       .  S
Zn274       O281   2.044       .  S
Zn274       O285   2.013       .  S
Zn275       O277   1.840       .  S
Zn275       O280   1.952       .  S
Zn275       O283   1.962       .  S
Zn275       O286   1.949       .  S
Zn276       O277   1.906       .  S
Zn276       O284   2.110       .  S
Zn276       O287   2.034       .  S
Zn276       O288   2.037       .  S
O278        C290   1.276       .  A
O279        C291   1.283       .  A
O280        C292   1.261       .  A
O281        C290   1.281       .  A
O282        C292   1.282       .  A
O283        C291   1.262       .  A
O284        C293   1.285       .  A
O285        C294   1.274       .  A
O286        C293   1.261       .  A
O287        C294   1.282       .  A
O288        C295   1.277       .  A
O289        C295   1.277       .  A
C290       C1280   1.498       .  S
C291       C1290   1.487       .  S
C292       C1300   1.484       .  S
C293       C1270   1.481       .  S
C294       C1260   1.490       .  S
C295       C1250   1.511       .  S
Zn296       O300   2.023       .  S
Zn296       O301   2.136       .  S
Zn296       O305   2.120       .  S
Zn296       O312   2.103       .  S
Zn297       O300   2.026       .  S
Zn297       O302   2.125       .  S
Zn297       O304   2.174       .  S
Zn297       O308   2.116       .  S
Zn298       O300   2.030       .  S
Zn298       O303   2.118       .  S
Zn298       O306   2.053       .  S
Zn298       O309   2.126       .  S
Zn299       O300   2.033       .  S
Zn299       O307   2.134       .  S
Zn299       O310   2.144       .  S
Zn299       O311   2.112       .  S
O301        C313   1.289       .  A
O302        C314   1.290       .  A
O303        C315   1.286       .  A
O304        C313   1.290       .  A
O305        C315   1.287       .  A
O306        C314   1.280       .  A
O307        C316   1.288       .  A
O308        C317   1.283       .  A
O309        C316   1.286       .  A
O310        C317   1.289       .  A
O311        C318   1.288       .  A
O312        C318   1.286       .  A
C313        N354   1.486       .  S
C314        N326   1.470       .  S
C315        N340   1.474       .  S
C316        N319   1.476       .  S
C317        N333   1.478       .  S
C318        N347   1.469       .  S
N319        C323   1.380       .  A
N319        C320   1.377       .  A
C320       C1240   1.472       .  S
C320        C321   1.378   1_554  A
C321        C322   1.343       .  A
C321        H324   1.083       .  S
C322        C323   1.379   1_556  A
C322        H325   1.085       .  S
C323       C1793   1.477       .  S
N326        C330   1.358       .  A
N326        C327   1.373       .  A
C327       C1813   1.522       .  S
C327        C328   1.381       .  A
C328        C329   1.365       .  A
C328        H331   1.084       .  S
C329        C330   1.387       .  A
C329        H332   1.079       .  S
C330       C1353   1.502       .  S
N333        C337   1.380       .  A
N333        C334   1.374       .  A
C334       C1233   1.483       .  S
C334        C335   1.384       .  A
C335        C336   1.350       .  A
C335        H338   1.086       .  S
C336        C337   1.377       .  A
C336        H339   1.085       .  S
C337       C1330   1.486       .  S
N340        C344   1.375       .  A
N340        C341   1.377       .  A
C341       C1800   1.481       .  S
C341        C342   1.382       .  A
C342        C343   1.340       .  A
C342        H345   1.079       .  S
C343        C344   1.380       .  A
C343        H346   1.082       .  S
C344       C1593   1.472       .  S
N347        C351   1.374       .  A
N347        C348   1.374       .  A
C348       C1220   1.497       .  S
C348        C349   1.385       .  A
C349        C350   1.346       .  A
C349        H352   1.085       .  S
C350        C351   1.376       .  A
C350        H353   1.087       .  S
C351       C1573   1.482       .  S
N354        C358   1.394       .  A
N354        C355   1.383       .  A
C355       C1603   1.486       .  S
C355        C356   1.375       .  A
C356        C357   1.341       .  A
C356        H359   1.086       .  S
C357        C358   1.382       .  A
C357        H360   1.085       .  S
C358       C1360   1.502       .  S
Zn361       O365   1.843       .  S
Zn361       O366   1.945       .  S
Zn361       O370   1.948       .  S
Zn361       O377   1.969       .  S
Zn362       O365   1.911       .  S
Zn362       O367   2.016   1_554  S
Zn362       O369   2.082       .  S
Zn362       O373   1.966       .  S
Zn363       O365   1.918   1_556  S
Zn363       O368   2.099       .  S
Zn363       O371   2.025       .  S
Zn363       O374   2.042       .  S
Zn364       O365   1.924       .  S
Zn364       O372   2.040   1_554  S
Zn364       O375   2.047       .  S
Zn364       O376   2.113       .  S
O366        C378   1.259       .  A
O367        C379   1.276       .  A
O368        C380   1.283       .  A
O369        C378   1.279       .  A
O370        C380   1.263   1_554  A
O371        C379   1.274       .  A
O372        C381   1.279       .  A
O373        C382   1.269       .  A
O374        C381   1.280       .  A
O375        C382   1.279       .  A
O376        C383   1.285       .  A
O377        C383   1.263       .  A
C378       C1230   1.472       .  S
C379       C1200   1.517       .  S
C380       C1243   1.475       .  S
C381       C1210   1.491       .  S
C382       C1190   1.509       .  S
C383       C1223   1.489       .  S
Zn384       O388   2.027       .  S
Zn384       O389   2.121       .  S
Zn384       O393   2.100       .  S
Zn384       O400   2.120       .  S
Zn385       O388   2.032       .  S
Zn385       O390   2.130       .  S
Zn385       O392   2.163       .  S
Zn385       O396   2.141       .  S
Zn386       O388   2.044       .  S
Zn386       O391   2.113       .  S
Zn386       O394   2.094       .  S
Zn386       O397   2.116       .  S
Zn387       O388   2.038       .  S
Zn387       O395   2.126       .  S
Zn387       O398   2.141       .  S
Zn387       O399   2.122       .  S
O389        C401   1.285       .  A
O390        C402   1.290       .  A
O391        C403   1.283       .  A
O392        C401   1.293       .  A
O393        C403   1.286       .  A
O394        C402   1.283       .  A
O395        C404   1.286       .  A
O396        C405   1.289       .  A
O397        C404   1.286       .  A
O398        C405   1.290       .  A
O399        C406   1.287       .  A
O400        C406   1.288       .  A
C401        N428   1.480       .  S
C402        N414   1.469       .  S
C403        N442   1.470       .  S
C404        N421   1.473       .  S
C405        N407   1.480       .  S
C406        N435   1.473       .  S
N407        C411   1.382       .  A
N407        C408   1.379       .  A
C408       C1673   1.472       .  S
C408        C409   1.379   1_455  A
C409        C410   1.339       .  A
C409        H412   1.079       .  S
C410        C411   1.381   1_655  A
C410        H413   1.079       .  S
C411       C1180   1.480       .  S
N414        C418   1.376       .  A
N414        C415   1.372       .  A
C415       C1170   1.465       .  S
C415        C416   1.379       .  A
C416        C417   1.341       .  A
C416        H419   1.086       .  S
C417        C418   1.379       .  A
C417        H420   1.085       .  S
C418       C1273   1.472       .  S
N421        C425   1.377       .  A
N421        C422   1.379       .  A
C422       C1703   1.477       .  S
C422        C423   1.380       .  A
C423        C424   1.340       .  A
C423        H426   1.085       .  S
C424        C425   1.378       .  A
C424        H427   1.085       .  S
C425       C1293   1.473       .  S
N428        C432   1.384       .  A
N428        C429   1.377       .  A
C429       C1160   1.468       .  S
C429        C430   1.378       .  A
C430        C431   1.335       .  A
C430        H433   1.085       .  S
C431        C432   1.381       .  A
C431        H434   1.085       .  S
C432       C1450   1.480       .  S
N435        C439   1.375       .  A
N435        C436   1.376       .  A
C436       C1680   1.470       .  S
C436        C437   1.379       .  A
C437        C438   1.341       .  A
C437        H440   1.085       .  S
C438        C439   1.380       .  A
C438        H441   1.085       .  S
C439       C1463   1.470       .  S
N442        C446   1.378       .  A
N442        C443   1.370       .  A
C443       C1483   1.468       .  S
C443        C444   1.378       .  A
C444        C445   1.344       .  A
C444        H447   1.080       .  S
C445        C446   1.382       .  A
C445        H448   1.079       .  S
C446       C1303   1.477       .  S
Zn449       O453   1.900   1_655  S
Zn449       O454   2.126       .  S
Zn449       O458   2.037       .  S
Zn449       O465   2.022       .  S
Zn450       O453   1.822       .  S
Zn450       O455   1.946       .  S
Zn450       O457   1.953       .  S
Zn450       O461   1.951       .  S
Zn451       O453   1.910       .  S
Zn451       O456   2.028   1_455  S
Zn451       O459   2.095       .  S
Zn451       O462   2.026       .  S
Zn452       O453   1.902       .  S
Zn452       O460   2.033       .  S
Zn452       O463   2.096       .  S
Zn452       O464   2.006   1_455  S
O454        C466   1.286       .  A
O455        C467   1.260       .  A
O456        C468   1.277       .  A
O457        C466   1.263   1_455  A
O458        C468   1.278       .  A
O459        C467   1.282       .  A
O460        C469   1.278       .  A
O461        C470   1.263       .  A
O462        C469   1.277       .  A
O463        C470   1.284       .  A
O464        C471   1.275       .  A
O465        C471   1.277       .  A
C466       C1183   1.496       .  S
C467       C1173   1.483       .  S
C468       C1143   1.509       .  S
C469       C1133   1.487       .  S
C470       C1163   1.480       .  S
C471       C1153   1.510       .  S
Zn472       O476   2.027       .  S
Zn472       O477   2.127       .  S
Zn472       O481   2.127       .  S
Zn472       O488   2.126       .  S
Zn473       O476   1.997       .  S
Zn473       O478   2.081       .  S
Zn473       O480   2.056       .  S
Zn473       O484   2.111       .  S
Zn474       O476   2.006       .  S
Zn474       O479   2.091       .  S
Zn474       O482   2.122       .  S
Zn474       O485   2.080       .  S
Zn475       O476   2.018       .  S
Zn475       O483   2.142       .  S
Zn475       O486   2.118       .  S
Zn475       O487   2.120       .  S
O477        C489   1.285       .  A
O478        C490   1.280       .  A
O479        C491   1.283       .  A
O480        C489   1.283       .  A
O481        C491   1.286       .  A
O482        C490   1.285       .  A
O483        C492   1.290       .  A
O484        C493   1.284       .  A
O485        C492   1.284       .  A
O486        C493   1.287       .  A
O487        C494   1.286       .  A
O488        C494   1.288       .  A
C489        N523   1.460       .  S
C490        N502   1.462       .  S
C491        N509   1.463       .  S
C492        N516   1.467       .  S
C493        N530   1.466       .  S
C494        N495   1.467       .  S
N495        C499   1.381       .  A
N495        C496   1.372       .  A
C496       C1193   1.472       .  S
C496        C497   1.378   1_556  A
C497        C498   1.345       .  A
C497        H500   1.087       .  S
C498        C499   1.381   1_554  A
C498        H501   1.086       .  S
C499       C1640   1.485       .  S
N502        C506   1.372       .  A
N502        C503   1.372       .  A
C503       C1120   1.476       .  S
C503        C504   1.380       .  A
C504        C505   1.351       .  A
C504        H507   1.084       .  S
C505        C506   1.380       .  A
C505        H508   1.084       .  S
C506       C1140   1.477       .  S
N509        C513   1.377       .  A
N509        C510   1.371       .  A
C510       C1150   1.474       .  S
C510        C511   1.380       .  A
C511        C512   1.346       .  A
C511        H514   1.085       .  S
C512        C513   1.379       .  A
C512        H515   1.086       .  S
C513       C1203   1.478       .  S
N516        C520   1.373       .  A
N516        C517   1.375       .  A
C517       C1110   1.512       .  S
C517        C518   1.386       .  A
C518        C519   1.356       .  A
C518        H521   1.081       .  S
C519        C520   1.379       .  A
C519        H522   1.086       .  S
C520       C1213   1.503       .  S
N523        C527   1.362       .  A
N523        C524   1.378       .  A
C524       C1130   1.509       .  S
C524        C525   1.383       .  A
C525        C526   1.360       .  A
C525        H528   1.083   1_655  S
C526        C527   1.377       .  A
C526        H529   1.082   1_655  S
C527       C1663   1.482       .  S
N530        C534   1.374       .  A
N530        C531   1.370       .  A
C531       C1103   1.468       .  S
C531        C532   1.381   1_565  A
C532        C533   1.347       .  A
C532        H535   1.084       .  S
C533        C534   1.382   1_545  A
C533        H536   1.084       .  S
C534       C1650   1.475       .  S
Zn537       O541   1.998       .  S
Zn537       O542   2.076       .  S
Zn537       O546   2.180       .  S
Zn537       O553   2.136       .  S
Zn538       O541   2.009       .  S
Zn538       O543   2.133       .  S
Zn538       O545   2.148       .  S
Zn538       O549   2.100       .  S
Zn539       O541   2.003       .  S
Zn539       O544   2.105       .  S
Zn539       O547   2.112       .  S
Zn539       O550   2.078       .  S
Zn540       O541   2.012       .  S
Zn540       O548   2.105       .  S
Zn540       O551   2.132       .  S
Zn540       O552   2.102       .  S
O542        C554   1.281       .  A
O543        C555   1.284       .  A
O544        C556   1.287       .  A
O545        C554   1.287       .  A
O546        C556   1.292       .  A
O547        C555   1.285       .  A
O548        C557   1.286       .  A
O549        C558   1.278       .  A
O550        C557   1.281       .  A
O551        C558   1.288       .  A
O552        C559   1.284       .  A
O553        C559   1.291       .  A
C554        N574   1.475       .  S
C555        N560   1.475       .  S
C556        N581   1.487       .  S
C557        N567   1.464       .  S
C558        N588   1.472       .  S
C559        N595   1.473       .  S
N560        C564   1.384       .  A
N560        C561   1.379       .  A
C561       C1730   1.491       .  S
C561        C562   1.376       .  A
C562        C563   1.349       .  A
C562        H565   1.085       .  S
C563        C564   1.384       .  A
C563        H566   1.083       .  S
C564       C1090   1.510       .  S
N567        C571   1.370       .  A
N567        C568   1.374       .  A
C568       C1740   1.485       .  S
C568        C569   1.378       .  A
C569        C570   1.352       .  A
C569        H572   1.086       .  S
C570        C571   1.382       .  A
C570        H573   1.085       .  S
C571       C1080   1.487       .  S
N574        C578   1.374       .  A
N574        C575   1.375       .  A
C575       C1513   1.474       .  S
C575        C576   1.376       .  A
C576        C577   1.348       .  A
C576        H579   1.083       .  S
C577        C578   1.383       .  A
C577        H580   1.085       .  S
C578       C1073   1.474       .  S
N581        C585   1.390       .  A
N581        C582   1.377       .  A
C582       C1753   1.491       .  S
C582        C583   1.370       .  A
C583        C584   1.348       .  A
C583        H586   1.084       .  S
C584        C585   1.389       .  A
C584        H587   1.074       .  S
C585       C1523   1.525       .  S
N588        C592   1.387       .  A
N588        C589   1.378       .  A
C589       C1050   1.497       .  S
C589        C590   1.379       .  A
C590        C591   1.357       .  A
C590        H593   1.082       .  S
C591        C592   1.380       .  A
C591        H594   1.084       .  S
C592       C1060   1.512       .  S
N595        C599   1.375       .  A
N595        C596   1.379       .  A
C596       C1040   1.484       .  S
C596        C597   1.375       .  A
C597        C598   1.346       .  A
C597        H600   1.085       .  S
C598        C599   1.385       .  A
C598        H601   1.084       .  S
C599       C1530   1.489       .  S
Zn602       O606   1.842   1_565  S
Zn602       O607   1.957       .  S
Zn602       O611   1.968       .  S
Zn602       O618   1.920       .  S
Zn603       O606   1.941       .  S
Zn603       O608   2.032       .  S
Zn603       O610   2.076       .  S
Zn603       O614   2.011       .  S
Zn604       O606   1.914       .  S
Zn604       O609   2.101   1_545  S
Zn604       O612   2.041       .  S
Zn604       O615   2.034       .  S
Zn605       O606   1.926   1_565  S
Zn605       O613   2.054       .  S
Zn605       O616   2.031   1_565  S
Zn605       O617   2.142       .  S
O607        C619   1.257   1_565  A
O608        C620   1.275       .  A
O609        C621   1.286       .  A
O610        C619   1.279       .  A
O611        C621   1.267       .  A
O612        C620   1.278       .  A
O613        C622   1.279       .  A
O614        C623   1.273       .  A
O615        C622   1.278   1_545  A
O616        C623   1.279       .  A
O617        C624   1.287       .  A
O618        C624   1.259       .  A
C619       C1100   1.475       .  S
C620       C1063   1.490       .  S
C621       C1123   1.480       .  S
C622       C1093   1.526   1_565  S
C623       C1070   1.498       .  S
C624       C1113   1.484       .  S
Zn625       O629   1.921       .  S
Zn625       O630   2.037       .  S
Zn625       O634   2.111       .  S
Zn625       O641   2.022       .  S
Zn626       O629   1.916       .  S
Zn626       O631   2.119       .  S
Zn626       O633   2.041       .  S
Zn626       O637   2.028       .  S
Zn627       O629   1.840       .  S
Zn627       O632   1.932       .  S
Zn627       O635   1.965       .  S
Zn627       O638   1.962       .  S
Zn628       O629   1.910       .  S
Zn628       O636   2.134       .  S
Zn628       O639   2.029       .  S
Zn628       O640   2.050       .  S
O630        C642   1.277       .  A
O631        C643   1.286       .  A
O632        C644   1.262       .  A
O633        C642   1.277       .  A
O634        C644   1.284       .  A
O635        C643   1.264       .  A
O636        C645   1.288       .  A
O637        C646   1.278       .  A
O638        C645   1.263       .  A
O639        C646   1.278       .  A
O640        C647   1.281       .  A
O641        C647   1.276       .  A
C642       C1030   1.512       .  S
C643       C1043   1.497       .  S
C644       C1083   1.479       .  S
C645       C1053   1.493       .  S
C646       C1020   1.505       .  S
C647       C1010   1.508       .  S
Zn648       O652   2.019       .  S
Zn648       O653   2.146       .  S
Zn648       O657   2.162       .  S
Zn648       O664   2.102       .  S
Zn649       O652   2.022       .  S
Zn649       O654   2.126       .  S
Zn649       O656   2.109       .  S
Zn649       O660   2.126       .  S
Zn650       O652   2.027       .  S
Zn650       O655   2.152       .  S
Zn650       O658   2.121       .  S
Zn650       O661   2.179       .  S
Zn651       O652   2.023       .  S
Zn651       O659   2.134       .  S
Zn651       O662   2.134       .  S
Zn651       O663   2.132       .  S
O653        C665   1.291       .  A
O654        C666   1.290       .  A
O655        C667   1.293       .  A
O656        C665   1.285       .  A
O657        C667   1.293       .  A
O658        C666   1.285       .  A
O659        C668   1.284       .  A
O660        C669   1.287       .  A
O661        C668   1.295       .  A
O662        C669   1.283       .  A
O663        C670   1.287       .  A
O664        C670   1.285       .  A
C665        N678   1.475       .  S
C666        N692   1.475       .  S
C667        N685   1.485       .  S
C668        N671   1.488       .  S
C669        N699   1.478       .  S
C670        N706   1.473       .  S
N671        C675   1.391       .  A
N671        C672   1.382       .  A
C672       C1263   1.477       .  S
C672        C673   1.379       .  A
C673        C674   1.337       .  A
C673        H676   1.085       .  S
C674        C675   1.378       .  A
C674        H677   1.081       .  S
C675       C1000   1.484       .  S
N678        C682   1.382       .  A
N678        C679   1.376       .  A
C679       C1783   1.480       .  S
C679        C680   1.382       .  A
C680        C681   1.347       .  A
C680        H683   1.079       .  S
C681        C682   1.379       .  A
C681        H684   1.079       .  S
C682       C1563   1.485       .  S
N685        C689   1.388       .  A
N685        C686   1.386       .  A
C686       C1253   1.482       .  S
C686        C687   1.380       .  A
C687        C688   1.337       .  A
C687        H690   1.088       .  S
C688        C689   1.380       .  A
C688        H691   1.086       .  S
C689       C1773   1.488       .  S
N692        C696   1.372       .  A
N692        C693   1.383       .  A
C693       C1283   1.482       .  S
C693        C694   1.383       .  A
C694        C695   1.337       .  A
C694        H697   1.085       .  S
C695        C696   1.376       .  A
C695        H698   1.086       .  S
C696       C1583   1.463       .  S
N699        C703   1.384       .  A
N699        C700   1.373       .  A
C700       C1553   1.483       .  S
C700        C701   1.382       .  A
C701        C702   1.351       .  A
C701        H704   1.080       .  S
C702        C703   1.377       .  A
C702        H705   1.084       .  S
C703        C990   1.493       .  S
N706        C710   1.380       .  A
N706        C707   1.375       .  A
C707       C1763   1.477       .  S
C707        C708   1.374   1_565  A
C708        C709   1.343       .  A
C708        H711   1.085       .  S
C709        C710   1.386   1_545  A
C709        H712   1.085       .  S
C710        C980   1.493       .  S
Zn713       O717   1.789   1_565  S
Zn713       O718   1.963       .  S
Zn713       O722   1.949   1_565  S
Zn713       O729   1.942       .  S
Zn714       O717   1.889   1_565  S
Zn714       O719   2.030   1_565  S
Zn714       O721   2.133       .  S
Zn714       O725   2.024       .  S
Zn715       O717   1.894       .  S
Zn715       O720   2.126       .  S
Zn715       O723   2.045       .  S
Zn715       O726   2.029       .  S
Zn716       O717   1.934       .  S
Zn716       O724   2.035       .  S
Zn716       O727   2.026   1_545  S
Zn716       O728   2.134   1_545  S
O718        C730   1.264       .  A
O719        C731   1.278       .  A
O720        C732   1.284       .  A
O721        C730   1.286       .  A
O722        C732   1.259       .  A
O723        C731   1.279       .  A
O724        C733   1.278       .  A
O725        C734   1.282       .  A
O726        C733   1.281       .  A
O727        C734   1.278       .  A
O728        C735   1.283       .  A
O729        C735   1.260       .  A
C730       C1003   1.504       .  S
C731        C960   1.515       .  S
C732        C983   1.499       .  S
C733        C973   1.506       .  S
C734        C953   1.482   1_565  S
C735        C993   1.495       .  S
Zn736       O740   1.998       .  S
Zn736       O741   2.091       .  S
Zn736       O745   2.100       .  S
Zn736       O752   2.084       .  S
Zn737       O740   2.036       .  S
Zn737       O742   2.084       .  S
Zn737       O744   2.112       .  S
Zn737       O748   2.203       .  S
Zn738       O740   2.019       .  S
Zn738       O743   2.124       .  S
Zn738       O746   2.110       .  S
Zn738       O749   2.131       .  S
Zn739       O740   1.984       .  S
Zn739       O747   2.131       .  S
Zn739       O750   2.035       .  S
Zn739       O751   2.117       .  S
O741        C753   1.285       .  A
O742        C754   1.282       .  A
O743        C755   1.287       .  A
O744        C753   1.288       .  A
O745        C755   1.285       .  A
O746        C754   1.284       .  A
O747        C756   1.288       .  A
O748        C757   1.292       .  A
O749        C756   1.286       .  A
O750        C757   1.267       .  A
O751        C758   1.287       .  A
O752        C758   1.283       .  A
C753        N759   1.468       .  S
C754        N766   1.469       .  S
C755        N794   1.470       .  S
C756        N780   1.478       .  S
C757        N773   1.481       .  S
C758        N787   1.467       .  S
N759        C763   1.376       .  A
N759        C760   1.377       .  A
C760       C1373   1.494       .  S
C760        C761   1.377       .  A
C761        C762   1.353       .  A
C761        H764   1.079       .  S
C762        C763   1.386       .  A
C762        H765   1.082   1_554  S
C763       C1613   1.512       .  S
N766        C770   1.374       .  A
N766        C767   1.374       .  A
C767        C950   1.486       .  S
C767        C768   1.381   1_545  A
C768        C769   1.358       .  A
C768        H771   1.080       .  S
C769        C770   1.379   1_565  A
C769        H772   1.083       .  S
C770       C1630   1.484       .  S
N773        C777   1.383       .  A
N773        C774   1.374       .  A
C774       C1623   1.513       .  S
C774        C775   1.388       .  A
C775        C776   1.356       .  A
C775        H778   1.081   1_455  S
C776        C777   1.377       .  A
C776        H779   1.083       .  S
C777        C940   1.516       .  S
N780        C784   1.376       .  A
N780        C781   1.385       .  A
C781        C963   1.483       .  S
C781        C782   1.380       .  A
C782        C783   1.341       .  A
C782        H785   1.087       .  S
C783        C784   1.377       .  A
C783        H786   1.087       .  S
C784        C930   1.475       .  S
N787        C791   1.374       .  A
N787        C788   1.376       .  A
C788       C1380   1.484       .  S
C788        C789   1.377       .  A
C789        C790   1.349       .  A
C789        H792   1.082       .  S
C790        C791   1.385       .  A
C790        H793   1.081       .  S
C791        C920   1.494       .  S
N794        C798   1.376       .  A
N794        C795   1.377       .  A
C795        C970   1.490       .  S
C795        C796   1.384       .  A
C796        C797   1.346       .  A
C796        H799   1.086       .  S
C797        C798   1.377       .  A
C797        H800   1.084       .  S
C798       C1393   1.479       .  S
Zn801       O805   2.028       .  S
Zn801       O806   2.159       .  S
Zn801       O810   2.142       .  S
Zn801       O817   2.122       .  S
Zn802       O805   1.999       .  S
Zn802       O807   2.053       .  S
Zn802       O809   2.053       .  S
Zn802       O813   2.053       .  S
Zn803       O805   2.025       .  S
Zn803       O808   2.123       .  S
Zn803       O811   2.164       .  S
Zn803       O814   2.126       .  S
Zn804       O805   2.034       .  S
Zn804       O812   2.093       .  S
Zn804       O815   2.145       .  S
Zn804       O816   2.141       .  S
O806        C818   1.291       .  A
O807        C819   1.278       .  A
O808        C820   1.286       .  A
O809        C818   1.278       .  A
O810        C820   1.290       .  A
O811        C819   1.290       .  A
O812        C821   1.283       .  A
O813        C822   1.278       .  A
O814        C821   1.290       .  A
O815        C822   1.288       .  A
O816        C823   1.289       .  A
O817        C823   1.287       .  A
C818        N852   1.463       .  S
C819        N838   1.467       .  S
C820        N845   1.472       .  S
C821        N831   1.464       .  S
C822        N824   1.463       .  S
C823        N859   1.472       .  S
N824        C828   1.371       .  A
N824        C825   1.377       .  A
C825        C910   1.499       .  S
C825        C826   1.382       .  A
C826        C827   1.351       .  A
C826        H829   1.082       .  S
C827        C828   1.380       .  A
C827        H830   1.083       .  S
C828       C1313   1.485       .  S
N831        C835   1.376       .  A
N831        C832   1.371       .  A
C832        C900   1.474       .  S
C832        C833   1.378       .  A
C833        C834   1.350       .  A
C833        H836   1.084       .  S
C834        C835   1.382       .  A
C834        H837   1.085       .  S
C835       C1013   1.482       .  S
N838        C842   1.372       .  A
N838        C839   1.382       .  A
C839        C893   1.514       .  S
C839        C840   1.388       .  A
C840        C841   1.345       .  A
C840        H843   1.081   1_655  S
C841        C842   1.373       .  A
C841        H844   1.085   1_655  S
C842       C1690   1.486       .  S
N845        C849   1.382       .  A
N845        C846   1.372       .  A
C846       C1723   1.469       .  S
C846        C847   1.377       .  A
C847        C848   1.342       .  A
C847        H850   1.087       .  S
C848        C849   1.384       .  A
C848        H851   1.087       .  S
C849       C1023   1.483       .  S
N852        C856   1.378       .  A
N852        C853   1.380       .  A
C853       C1323   1.490       .  S
C853        C854   1.376       .  A
C854        C855   1.349       .  A
C854        H857   1.085       .  S
C855        C856   1.381       .  A
C855        H858   1.082       .  S
C856       C1713   1.492       .  S
N859        C863   1.382       .  A
N859        C860   1.376       .  A
C860       C1343   1.479       .  S
C860        C861   1.377       .  A
C861        C862   1.346       .  A
C861        H864   1.081       .  S
C862        C863   1.384       .  A
C862        H865   1.082       .  S
C863       C1033   1.493       .  S
Zn866       O870   1.844   1_655  S
Zn866       O871   1.944   1_655  S
Zn866       O875   1.929       .  S
Zn866       O882   1.979       .  S
Zn867       O870   1.933       .  S
Zn867       O872   2.016       .  S
Zn867       O874   2.109       .  S
Zn867       O878   2.022       .  S
Zn868       O870   1.925   1_655  S
Zn868       O873   2.091       .  S
Zn868       O876   2.032   1_655  S
Zn868       O879   2.026       .  S
Zn869       O870   1.917   1_655  S
Zn869       O877   2.059       .  S
Zn869       O880   2.051   1_655  S
Zn869       O881   2.119       .  S
O871        C883   1.257       .  A
O872        C884   1.276       .  A
O873        C885   1.281       .  A
O874        C883   1.283       .  A
O875        C885   1.261       .  A
O876        C884   1.275       .  A
O877        C886   1.280       .  A
O878        C887   1.275       .  A
O879        C886   1.278       .  A
O880        C887   1.279       .  A
O881        C888   1.288       .  A
O882        C888   1.270       .  A
C883        C890   1.482       .  S
C884        C933   1.509       .  S
C885        C903   1.471       .  S
C886        C943   1.492       .  S
C887        C923   1.515       .  S
C888        C913   1.496       .  S
C889        C890   1.411       .  A
C889        C894   1.416   1_455  A
C889       Br896   1.930       .  S
C890        C891   1.403       .  A
C891        C892   1.411       .  A
C891       Br898   1.934       .  S
C892        C893   1.428   1_455  A
C892       Br897   1.930   1_455  S
C893        C894   1.419       .  A
C894       Br895   1.928       .  S
C899        C900   1.416       .  A
C899        C904   1.405       .  A
C899       Br906   1.932       .  S
C900        C901   1.409       .  A
C901        C902   1.410       .  A
C901       Br908   1.929       .  S
C902        C903   1.411       .  A
C902       Br907   1.924       .  S
C903        C904   1.400       .  A
C904       Br905   1.925       .  S
C909        C910   1.415       .  A
C909        C914   1.416       .  A
C909       Br916   1.930       .  S
C910        C911   1.420       .  A
C911        C912   1.414       .  A
C911       Br918   1.934       .  S
C912        C913   1.407       .  A
C912       Br917   1.927       .  S
C913        C914   1.411       .  A
C914       Br915   1.917       .  S
C919        C920   1.410       .  A
C919        C924   1.422       .  A
C919       Br926   1.927       .  S
C920        C921   1.406       .  A
C921        C922   1.407       .  A
C921       Br928   1.938       .  S
C922        C923   1.426       .  A
C922       Br927   1.932       .  S
C923        C924   1.429       .  A
C924       Br925   1.932       .  S
C929        C930   1.403       .  A
C929        C934   1.413       .  A
C929       Br936   1.925       .  S
C930        C931   1.405       .  A
C931        C932   1.409       .  A
C931       Br938   1.936       .  S
C932        C933   1.431       .  A
C932       Br937   1.936       .  S
C933        C934   1.424       .  A
C934       Br935   1.932       .  S
C939        C940   1.412       .  A
C939        C944   1.404       .  A
C939       Br946   1.912       .  S
C940        C941   1.435   1_455  A
C941        C942   1.423       .  A
C941       Br948   1.927       .  S
C942        C943   1.400       .  A
C942       Br947   1.925       .  S
C943        C944   1.406   1_655  A
C944       Br945   1.914       .  S
C949        C950   1.401       .  A
C949        C954   1.400       .  A
C949       Br956   1.915       .  S
C950        C951   1.425   1_545  A
C951        C952   1.416       .  A
C951       Br958   1.921       .  S
C952        C953   1.399   1_565  A
C952       Br957   1.923       .  S
C953        C954   1.407       .  A
C954       Br955   1.912       .  S
C959        C960   1.422       .  A
C959        C964   1.416       .  A
C959       Br966   1.934       .  S
C960        C961   1.430       .  A
C961        C962   1.413       .  A
C961       Br968   1.929       .  S
C962        C963   1.403       .  A
C962       Br967   1.929       .  S
C963        C964   1.416       .  A
C964       Br965   1.936       .  S
C969        C970   1.410       .  A
C969        C974   1.419       .  A
C969       Br976   1.930       .  S
C970        C971   1.414       .  A
C971        C972   1.406       .  A
C971       Br978   1.934       .  S
C972        C973   1.410       .  A
C972       Br977   1.932       .  S
C973        C974   1.428       .  A
C974       Br975   1.933       .  S
C979        C980   1.410       .  A
C979        C984   1.415   1_565  A
C979       Br986   1.925       .  S
C980        C981   1.420       .  A
C981        C982   1.413   1_565  A
C981       Br988   1.935       .  S
C982        C983   1.411       .  A
C982       Br987   1.929       .  S
C983        C984   1.421       .  A
C984       Br985   1.932       .  S
C989        C990   1.430       .  A
C989        C994   1.420       .  A
C989       Br996   1.924       .  S
C990        C991   1.396       .  A
C991        C992   1.395       .  A
C991       Br998   1.906       .  S
C992        C993   1.415       .  A
C992       Br997   1.914       .  S
C993        C994   1.404       .  A
C994       Br995   1.929       .  S
C999       C1000   1.406       .  A
C999       C1004   1.415       .  A
C999      Br1006   1.928       .  S
C1000      C1001   1.421       .  A
C1001      C1002   1.417       .  A
C1001     Br1008   1.934       .  S
C1002      C1003   1.416       .  A
C1002     Br1007   1.930       .  S
C1003      C1004   1.418       .  A
C1004     Br1005   1.923       .  S
C1009      C1010   1.416       .  A
C1009      C1014   1.417       .  A
C1009     Br1016   1.931       .  S
C1010      C1011   1.422       .  A
C1011      C1012   1.411       .  A
C1011     Br1018   1.917       .  S
C1012      C1013   1.403       .  A
C1012     Br1017   1.933       .  S
C1013      C1014   1.416       .  A
C1014     Br1015   1.930       .  S
C1019      C1020   1.413       .  A
C1019      C1024   1.417       .  A
C1019     Br1026   1.932       .  S
C1020      C1021   1.419       .  A
C1021      C1022   1.411       .  A
C1021     Br1028   1.920       .  S
C1022      C1023   1.405       .  A
C1022     Br1027   1.926       .  S
C1023      C1024   1.418       .  A
C1024     Br1025   1.929       .  S
C1029      C1030   1.421       .  A
C1029      C1034   1.414       .  A
C1029     Br1036   1.930       .  S
C1030      C1031   1.415       .  A
C1031      C1032   1.417       .  A
C1031     Br1038   1.932       .  S
C1032      C1033   1.419       .  A
C1032     Br1037   1.935       .  S
C1033      C1034   1.411       .  A
C1034     Br1035   1.929       .  S
C1039      C1040   1.422       .  A
C1039      C1044   1.415       .  A
C1039     Br1046   1.928       .  S
C1040      C1041   1.407       .  A
C1041      C1042   1.411       .  A
C1041     Br1048   1.931       .  S
C1042      C1043   1.412       .  A
C1042     Br1047   1.920       .  S
C1043      C1044   1.410       .  A
C1044     Br1045   1.929       .  S
C1049      C1050   1.416       .  A
C1049      C1054   1.416       .  A
C1049     Br1056   1.931       .  S
C1050      C1051   1.414       .  A
C1051      C1052   1.415       .  A
C1051     Br1058   1.920       .  S
C1052      C1053   1.409       .  A
C1052     Br1057   1.927       .  S
C1053      C1054   1.412       .  A
C1054     Br1055   1.924       .  S
C1059      C1060   1.430       .  A
C1059      C1064   1.419       .  A
C1059     Br1066   1.926       .  S
C1060      C1061   1.413       .  A
C1061      C1062   1.407       .  A
C1061     Br1068   1.900       .  S
C1062      C1063   1.408       .  A
C1062     Br1067   1.927       .  S
C1063      C1064   1.401       .  A
C1064     Br1065   1.927       .  S
C1069      C1070   1.413       .  A
C1069      C1074   1.409       .  A
C1069     Br1076   1.931       .  S
C1070      C1071   1.427       .  A
C1071      C1072   1.412       .  A
C1071     Br1078   1.936       .  S
C1072      C1073   1.409       .  A
C1072     Br1077   1.935       .  S
C1073      C1074   1.411       .  A
C1074     Br1075   1.931       .  S
C1079      C1080   1.413       .  A
C1079      C1084   1.414       .  A
C1079     Br1086   1.926       .  S
C1080      C1081   1.412       .  A
C1081      C1082   1.404       .  A
C1081     Br1088   1.930       .  S
C1082      C1083   1.407       .  A
C1082     Br1087   1.926       .  S
C1083      C1084   1.410       .  A
C1084     Br1085   1.922       .  S
C1089      C1090   1.411       .  A
C1089      C1094   1.423       .  A
C1089     Br1096   1.928       .  S
C1090      C1091   1.418       .  A
C1091      C1092   1.414       .  A
C1091     Br1098   1.937       .  S
C1092      C1093   1.425       .  A
C1092     Br1097   1.939       .  S
C1093      C1094   1.433       .  A
C1094     Br1095   1.936   1_545  S
C1099      C1100   1.413       .  A
C1099      C1104   1.410   1_545  A
C1099     Br1106   1.928       .  S
C1100      C1101   1.407       .  A
C1101      C1102   1.404   1_545  A
C1101     Br1108   1.928       .  S
C1102      C1103   1.411       .  A
C1102     Br1107   1.930       .  S
C1103      C1104   1.409       .  A
C1104     Br1105   1.929       .  S
C1109      C1110   1.422       .  A
C1109      C1114   1.415       .  A
C1109     Br1116   1.933       .  S
C1110      C1111   1.427       .  A
C1111      C1112   1.415       .  A
C1111     Br1118   1.935       .  S
C1112      C1113   1.404       .  A
C1112     Br1117   1.928       .  S
C1113      C1114   1.408       .  A
C1114     Br1115   1.928       .  S
C1119      C1120   1.408       .  A
C1119      C1124   1.406       .  A
C1119     Br1126   1.927       .  S
C1120      C1121   1.413       .  A
C1121      C1122   1.414       .  A
C1121     Br1128   1.930       .  S
C1122      C1123   1.409       .  A
C1122     Br1127   1.923   1_565  S
C1123      C1124   1.407       .  A
C1124     Br1125   1.921       .  S
C1129      C1130   1.437   1_455  A
C1129      C1134   1.416       .  A
C1129     Br1136   1.931       .  S
C1130      C1131   1.408       .  A
C1131      C1132   1.409       .  A
C1131     Br1138   1.930       .  S
C1132      C1133   1.413   1_655  A
C1132     Br1137   1.916       .  S
C1133      C1134   1.397       .  A
C1134     Br1135   1.930       .  S
C1139      C1140   1.406       .  A
C1139      C1144   1.411       .  A
C1139     Br1146   1.936       .  S
C1140      C1141   1.407       .  A
C1141      C1142   1.415       .  A
C1141     Br1148   1.928       .  S
C1142      C1143   1.421       .  A
C1142     Br1147   1.929       .  S
C1143      C1144   1.428       .  A
C1144     Br1145   1.934       .  S
C1149      C1150   1.402       .  A
C1149      C1154   1.413       .  A
C1149     Br1156   1.928       .  S
C1150      C1151   1.404       .  A
C1151      C1152   1.411       .  A
C1151     Br1158   1.929       .  S
C1152      C1153   1.427       .  A
C1152     Br1157   1.933       .  S
C1153      C1154   1.427       .  A
C1154     Br1155   1.933       .  S
C1159      C1160   1.409       .  A
C1159      C1164   1.409       .  A
C1159     Br1166   1.929       .  S
C1160      C1161   1.415       .  A
C1161      C1162   1.409       .  A
C1161     Br1168   1.934       .  S
C1162      C1163   1.408       .  A
C1162     Br1167   1.928       .  S
C1163      C1164   1.409       .  A
C1164     Br1165   1.923       .  S
C1169      C1170   1.403       .  A
C1169      C1174   1.405       .  A
C1169     Br1176   1.930       .  S
C1170      C1171   1.412       .  A
C1171      C1172   1.411       .  A
C1171     Br1178   1.929       .  S
C1172      C1173   1.411       .  A
C1172     Br1177   1.927       .  S
C1173      C1174   1.412       .  A
C1174     Br1175   1.923       .  S
C1179      C1180   1.406       .  A
C1179      C1184   1.411       .  A
C1179     Br1186   1.930       .  S
C1180      C1181   1.423       .  A
C1181      C1182   1.414   1_455  A
C1181     Br1188   1.937       .  S
C1182      C1183   1.409       .  A
C1182     Br1187   1.929       .  S
C1183      C1184   1.413   1_655  A
C1184     Br1185   1.920   1_455  S
C1189      C1190   1.429       .  A
C1189      C1194   1.415   1_554  A
C1189     Br1196   1.934       .  S
C1190      C1191   1.429       .  A
C1191      C1192   1.409   1_554  A
C1191     Br1198   1.936       .  S
C1192      C1193   1.400       .  A
C1192     Br1197   1.927       .  S
C1193      C1194   1.405       .  A
C1194     Br1195   1.928       .  S
C1199      C1200   1.425       .  A
C1199      C1204   1.414       .  A
C1199     Br1206   1.937       .  S
C1200      C1201   1.434       .  A
C1201      C1202   1.415       .  A
C1201     Br1208   1.939       .  S
C1202      C1203   1.403       .  A
C1202     Br1207   1.933       .  S
C1203      C1204   1.410       .  A
C1204     Br1205   1.935       .  S
C1209      C1210   1.414       .  A
C1209      C1214   1.407       .  A
C1209     Br1216   1.910       .  S
C1210      C1211   1.402       .  A
C1211      C1212   1.418       .  A
C1211     Br1218   1.927       .  S
C1212      C1213   1.430       .  A
C1212     Br1217   1.930       .  S
C1213      C1214   1.402       .  A
C1214     Br1215   1.927       .  S
C1219      C1220   1.415       .  A
C1219      C1224   1.417       .  A
C1219     Br1226   1.928       .  S
C1220      C1221   1.416       .  A
C1221      C1222   1.405       .  A
C1221     Br1228   1.930       .  S
C1222      C1223   1.407       .  A
C1222     Br1227   1.930       .  S
C1223      C1224   1.415       .  A
C1224     Br1225   1.924       .  S
C1229      C1230   1.406       .  A
C1229      C1234   1.408       .  A
C1229     Br1236   1.928       .  S
C1230      C1231   1.405       .  A
C1231      C1232   1.409       .  A
C1231     Br1238   1.927       .  S
C1232      C1233   1.415       .  A
C1232     Br1237   1.925       .  S
C1233      C1234   1.415       .  A
C1234     Br1235   1.929       .  S
C1239      C1240   1.418       .  A
C1239      C1244   1.413   1_554  A
C1239     Br1246   1.930   1_554  S
C1240      C1241   1.409       .  A
C1241      C1242   1.407       .  A
C1241     Br1248   1.930       .  S
C1242      C1243   1.405   1_554  A
C1242     Br1247   1.918   1_554  S
C1243      C1244   1.403       .  A
C1244     Br1245   1.926       .  S
C1249      C1250   1.421       .  A
C1249      C1254   1.410       .  A
C1249     Br1256   1.930       .  S
C1250      C1251   1.424       .  A
C1251      C1252   1.422       .  A
C1251     Br1258   1.929       .  S
C1252      C1253   1.412       .  A
C1252     Br1257   1.926       .  S
C1253      C1254   1.405       .  A
C1254     Br1255   1.923       .  S
C1259      C1260   1.407       .  A
C1259      C1264   1.394       .  A
C1259     Br1266   1.891       .  S
C1260      C1261   1.405       .  A
C1261      C1262   1.416       .  A
C1261     Br1268   1.926       .  S
C1262      C1263   1.426       .  A
C1262     Br1267   1.929       .  S
C1263      C1264   1.400       .  A
C1264     Br1265   1.927       .  S
C1269      C1270   1.411       .  A
C1269      C1274   1.413       .  A
C1269     Br1276   1.922       .  S
C1270      C1271   1.406       .  A
C1271      C1272   1.408       .  A
C1271     Br1278   1.928       .  S
C1272      C1273   1.413       .  A
C1272     Br1277   1.931       .  S
C1273      C1274   1.409       .  A
C1274     Br1275   1.928       .  S
C1279      C1280   1.410       .  A
C1279      C1284   1.409       .  A
C1279     Br1286   1.934       .  S
C1280      C1281   1.422       .  A
C1281      C1282   1.414       .  A
C1281     Br1288   1.924       .  S
C1282      C1283   1.407       .  A
C1282     Br1287   1.932       .  S
C1283      C1284   1.423       .  A
C1284     Br1285   1.944       .  S
C1289      C1290   1.410       .  A
C1289      C1294   1.411       .  A
C1289     Br1296   1.927       .  S
C1290      C1291   1.410       .  A
C1291      C1292   1.412       .  A
C1291     Br1298   1.922       .  S
C1292      C1293   1.409       .  A
C1292     Br1297   1.929       .  S
C1293      C1294   1.413       .  A
C1294     Br1295   1.930       .  S
C1299      C1300   1.407       .  A
C1299      C1304   1.410       .  A
C1299     Br1306   1.928       .  S
C1300      C1301   1.410       .  A
C1301      C1302   1.412       .  A
C1301     Br1308   1.926       .  S
C1302      C1303   1.411       .  A
C1302     Br1307   1.928       .  S
C1303      C1304   1.416       .  A
C1304     Br1305   1.931       .  S
C1309      C1310   1.399       .  A
C1309      C1314   1.415       .  A
C1309     Br1316   1.924       .  S
C1310      C1311   1.409       .  A
C1311      C1312   1.401       .  A
C1311     Br1318   1.900       .  S
C1312      C1313   1.399       .  A
C1312     Br1317   1.926       .  S
C1313      C1314   1.425       .  A
C1314     Br1315   1.922       .  S
C1319      C1320   1.426       .  A
C1319      C1324   1.418       .  A
C1319     Br1326   1.932       .  S
C1320      C1321   1.417       .  A
C1321      C1322   1.416       .  A
C1321     Br1328   1.933       .  S
C1322      C1323   1.414       .  A
C1322     Br1327   1.930       .  S
C1323      C1324   1.410       .  A
C1324     Br1325   1.934       .  S
C1329      C1330   1.424       .  A
C1329      C1334   1.419       .  A
C1329     Br1336   1.926       .  S
C1330      C1331   1.394       .  A
C1331      C1332   1.395       .  A
C1331     Br1338   1.913       .  S
C1332      C1333   1.420       .  A
C1332     Br1337   1.921       .  S
C1333      C1334   1.410       .  A
C1334     Br1335   1.928       .  S
C1339      C1340   1.428       .  A
C1339      C1344   1.418       .  A
C1339     Br1346   1.935       .  S
C1340      C1341   1.435       .  A
C1341      C1342   1.412       .  A
C1341     Br1348   1.936       .  S
C1342      C1343   1.401       .  A
C1342     Br1347   1.935       .  S
C1343      C1344   1.409       .  A
C1344     Br1345   1.927       .  S
C1349      C1350   1.406       .  A
C1349      C1354   1.418       .  A
C1349     Br1356   1.928       .  S
C1350      C1351   1.411       .  A
C1351      C1352   1.405       .  A
C1351     Br1358   1.931       .  S
C1352      C1353   1.412       .  A
C1352     Br1357   1.936       .  S
C1353      C1354   1.427       .  A
C1354     Br1355   1.929       .  S
C1359      C1360   1.412       .  A
C1359      C1364   1.417       .  A
C1359     Br1366   1.924       .  S
C1360      C1361   1.430       .  A
C1361      C1362   1.413       .  A
C1361     Br1368   1.944       .  S
C1362      C1363   1.414       .  A
C1362     Br1367   1.936       .  S
C1363      C1364   1.418       .  A
C1364     Br1365   1.933       .  S
C1369      C1370   1.422   1_554  A
C1369      C1374   1.416       .  A
C1369     Br1376   1.926       .  S
C1370      C1371   1.412       .  A
C1371      C1372   1.413       .  A
C1371     Br1378   1.935       .  S
C1372      C1373   1.419   1_556  A
C1372     Br1377   1.926       .  S
C1373      C1374   1.409       .  A
C1374     Br1375   1.933       .  S
C1379      C1380   1.415       .  A
C1379      C1384   1.409       .  A
C1379     Br1386   1.927       .  S
C1380      C1381   1.405       .  A
C1381      C1382   1.414       .  A
C1381     Br1388   1.927       .  S
C1382      C1383   1.422       .  A
C1382     Br1387   1.925   1_554  S
C1383      C1384   1.410       .  A
C1384     Br1385   1.934       .  S
C1389      C1390   1.413       .  A
C1389      C1394   1.409       .  A
C1389     Br1396   1.935       .  S
C1390      C1391   1.425       .  A
C1391      C1392   1.413       .  A
C1391     Br1398   1.925       .  S
C1392      C1393   1.405       .  A
C1392     Br1397   1.933       .  S
C1393      C1394   1.415       .  A
C1394     Br1395   1.931       .  S
C1399      C1400   1.405   1_554  A
C1399      C1404   1.410   1_554  A
C1399     Br1406   1.928       .  S
C1400      C1401   1.409       .  A
C1401      C1402   1.410       .  A
C1401     Br1408   1.919       .  S
C1402      C1403   1.408       .  A
C1402     Br1407   1.928       .  S
C1403      C1404   1.418       .  A
C1404     Br1405   1.925   1_556  S
C1409      C1410   1.408       .  A
C1409      C1414   1.412       .  A
C1409     Br1416   1.930       .  S
C1410      C1411   1.418       .  A
C1411      C1412   1.405       .  A
C1411     Br1418   1.927       .  S
C1412      C1413   1.402       .  A
C1412     Br1417   1.931       .  S
C1413      C1414   1.414       .  A
C1414     Br1415   1.921       .  S
C1419      C1420   1.412       .  A
C1419      C1424   1.410       .  A
C1419     Br1426   1.931       .  S
C1420      C1421   1.423       .  A
C1421      C1422   1.414       .  A
C1421     Br1428   1.923       .  S
C1422      C1423   1.406       .  A
C1422     Br1427   1.930       .  S
C1423      C1424   1.406       .  A
C1424     Br1425   1.920       .  S
C1429      C1430   1.415       .  A
C1429      C1434   1.416       .  A
C1429     Br1436   1.928       .  S
C1430      C1431   1.422       .  A
C1431      C1432   1.414       .  A
C1431     Br1438   1.941       .  S
C1432      C1433   1.418       .  A
C1432     Br1437   1.936       .  S
C1433      C1434   1.420       .  A
C1434     Br1435   1.935       .  S
C1439      C1440   1.416       .  A
C1439      C1444   1.420       .  A
C1439     Br1446   1.931       .  S
C1440      C1441   1.412       .  A
C1441      C1442   1.414       .  A
C1441     Br1448   1.931       .  S
C1442      C1443   1.419       .  A
C1442     Br1447   1.935       .  S
C1443      C1444   1.419       .  A
C1444     Br1445   1.929       .  S
C1449      C1450   1.407       .  A
C1449      C1454   1.417       .  A
C1449     Br1456   1.928       .  S
C1450      C1451   1.412       .  A
C1451      C1452   1.418       .  A
C1451     Br1458   1.934       .  S
C1452      C1453   1.424       .  A
C1452     Br1457   1.936       .  S
C1453      C1454   1.424       .  A
C1454     Br1455   1.929       .  S
C1459      C1460   1.421       .  A
C1459      C1464   1.408       .  A
C1459     Br1466   1.929       .  S
C1460      C1461   1.411       .  A
C1461      C1462   1.412       .  A
C1461     Br1468   1.934       .  S
C1462      C1463   1.415       .  A
C1462     Br1467   1.933       .  S
C1463      C1464   1.403       .  A
C1464     Br1465   1.933       .  S
C1469      C1470   1.432       .  A
C1469      C1474   1.408       .  A
C1469     Br1476   1.945       .  S
C1470      C1471   1.414       .  A
C1471      C1472   1.414       .  A
C1471     Br1478   1.933       .  S
C1472      C1473   1.421       .  A
C1472     Br1477   1.934       .  S
C1473      C1474   1.402       .  A
C1474     Br1475   1.918       .  S
C1479      C1480   1.419       .  A
C1479      C1484   1.408       .  A
C1479     Br1486   1.917       .  S
C1480      C1481   1.417       .  A
C1481      C1482   1.410       .  A
C1481     Br1488   1.929       .  S
C1482      C1483   1.409       .  A
C1482     Br1487   1.937       .  S
C1483      C1484   1.398       .  A
C1484     Br1485   1.928       .  S
C1489      C1490   1.420       .  A
C1489      C1494   1.413       .  A
C1489     Br1496   1.934       .  S
C1490      C1491   1.423       .  A
C1491      C1492   1.410       .  A
C1491     Br1498   1.933       .  S
C1492      C1493   1.410       .  A
C1492     Br1497   1.937       .  S
C1493      C1494   1.408       .  A
C1494     Br1495   1.925       .  S
C1499      C1500   1.402       .  A
C1499      C1504   1.413       .  A
C1499     Br1506   1.928       .  S
C1500      C1501   1.415       .  A
C1501      C1502   1.412       .  A
C1501     Br1508   1.927       .  S
C1502      C1503   1.410       .  A
C1502     Br1507   1.925       .  S
C1503      C1504   1.424       .  A
C1504     Br1505   1.931       .  S
C1509      C1510   1.417       .  A
C1509      C1514   1.410       .  A
C1509     Br1516   1.930       .  S
C1510      C1511   1.423       .  A
C1511      C1512   1.399       .  A
C1511     Br1518   1.924       .  S
C1512      C1513   1.394       .  A
C1512     Br1517   1.922       .  S
C1513      C1514   1.409       .  A
C1514     Br1515   1.930       .  S
C1519      C1520   1.408       .  A
C1519      C1524   1.415       .  A
C1519     Br1526   1.940       .  S
C1520      C1521   1.414       .  A
C1521      C1522   1.419       .  A
C1521     Br1528   1.932       .  S
C1522      C1523   1.422       .  A
C1522     Br1527   1.928       .  S
C1523      C1524   1.440       .  A
C1524     Br1525   1.944       .  S
C1529      C1530   1.413       .  A
C1529      C1534   1.409       .  A
C1529     Br1536   1.933       .  S
C1530      C1531   1.410       .  A
C1531      C1532   1.413       .  A
C1531     Br1538   1.927       .  S
C1532      C1533   1.420       .  A
C1532     Br1537   1.935       .  S
C1533      C1534   1.415       .  A
C1534     Br1535   1.934       .  S
C1539      C1540   1.415       .  A
C1539      C1544   1.416       .  A
C1539     Br1546   1.934       .  S
C1540      C1541   1.421       .  A
C1541      C1542   1.407       .  A
C1541     Br1548   1.937       .  S
C1542      C1543   1.412       .  A
C1542     Br1547   1.937       .  S
C1543      C1544   1.416       .  A
C1544     Br1545   1.928       .  S
C1549      C1550   1.409       .  A
C1549      C1554   1.410       .  A
C1549     Br1556   1.923       .  S
C1550      C1551   1.406       .  A
C1551      C1552   1.407       .  A
C1551     Br1558   1.931       .  S
C1552      C1553   1.413       .  A
C1552     Br1557   1.919       .  S
C1553      C1554   1.411       .  A
C1554     Br1555   1.928       .  S
C1559      C1560   1.412       .  A
C1559      C1564   1.414       .  A
C1559     Br1566   1.925       .  S
C1560      C1561   1.409       .  A
C1561      C1562   1.413       .  A
C1561     Br1568   1.926       .  S
C1562      C1563   1.414       .  A
C1562     Br1567   1.923       .  S
C1563      C1564   1.415       .  A
C1564     Br1565   1.933       .  S
C1569      C1570   1.409       .  A
C1569      C1574   1.412       .  A
C1569     Br1576   1.934       .  S
C1570      C1571   1.419       .  A
C1571      C1572   1.409       .  A
C1571     Br1578   1.918       .  S
C1572      C1573   1.401       .  A
C1572     Br1577   1.929       .  S
C1573      C1574   1.420       .  A
C1574     Br1575   1.925       .  S
C1579      C1580   1.409       .  A
C1579      C1584   1.408       .  A
C1579     Br1586   1.923       .  S
C1580      C1581   1.407       .  A
C1581      C1582   1.405       .  A
C1581     Br1588   1.928       .  S
C1582      C1583   1.410       .  A
C1582     Br1587   1.929       .  S
C1583      C1584   1.407       .  A
C1584     Br1585   1.929       .  S
C1589      C1590   1.409       .  A
C1589      C1594   1.406       .  A
C1589     Br1596   1.935       .  S
C1590      C1591   1.422       .  A
C1591      C1592   1.412       .  A
C1591     Br1598   1.923       .  S
C1592      C1593   1.403       .  A
C1592     Br1597   1.931       .  S
C1593      C1594   1.417       .  A
C1594     Br1595   1.937       .  S
C1599      C1600   1.423       .  A
C1599      C1604   1.417       .  A
C1599     Br1606   1.925       .  S
C1600      C1601   1.412       .  A
C1601      C1602   1.410       .  A
C1601     Br1608   1.937       .  S
C1602      C1603   1.415       .  A
C1602     Br1607   1.926       .  S
C1603      C1604   1.410       .  A
C1604     Br1605   1.931       .  S
C1609      C1610   1.422       .  A
C1609      C1614   1.420   1_556  A
C1609     Br1616   1.936       .  S
C1610      C1611   1.414       .  A
C1611      C1612   1.409   1_556  A
C1611     Br1618   1.934       .  S
C1612      C1613   1.417       .  A
C1612     Br1617   1.934       .  S
C1613      C1614   1.417       .  A
C1614     Br1615   1.924       .  S
C1619      C1620   1.410       .  A
C1619      C1624   1.413   1_655  A
C1619     Br1626   1.935       .  S
C1620      C1621   1.404       .  A
C1621      C1622   1.411       .  A
C1621     Br1628   1.938       .  S
C1622      C1623   1.430   1_655  A
C1622     Br1627   1.938   1_655  S
C1623      C1624   1.425       .  A
C1624     Br1625   1.933       .  S
C1629      C1630   1.420   1_565  A
C1629      C1634   1.411       .  A
C1629     Br1636   1.926       .  S
C1630      C1631   1.402       .  A
C1631      C1632   1.403       .  A
C1631     Br1638   1.932       .  S
C1632      C1633   1.416       .  A
C1632     Br1637   1.911       .  S
C1633      C1634   1.402   1_545  A
C1634     Br1635   1.928       .  S
C1639      C1640   1.419       .  A
C1639      C1644   1.415   1_556  A
C1639     Br1646   1.938       .  S
C1640      C1641   1.407       .  A
C1641      C1642   1.416       .  A
C1641     Br1648   1.928       .  S
C1642      C1643   1.421   1_556  A
C1642     Br1647   1.928       .  S
C1643      C1644   1.414       .  A
C1644     Br1645   1.931       .  S
C1649      C1650   1.403       .  A
C1649      C1654   1.407   1_565  A
C1649     Br1656   1.925       .  S
C1650      C1651   1.407   1_565  A
C1651      C1652   1.417       .  A
C1651     Br1658   1.926   1_545  S
C1652      C1653   1.425       .  A
C1652     Br1657   1.931       .  S
C1653      C1654   1.425       .  A
C1654     Br1655   1.935       .  S
C1659      C1660   1.412   1_655  A
C1659      C1664   1.399       .  A
C1659     Br1666   1.908       .  S
C1660      C1661   1.403       .  A
C1661      C1662   1.416       .  A
C1661     Br1668   1.922       .  S
C1662      C1663   1.416   1_455  A
C1662     Br1667   1.918       .  S
C1663      C1664   1.399       .  A
C1664     Br1665   1.926       .  S
C1669      C1670   1.411       .  A
C1669      C1674   1.410   1_655  A
C1669     Br1676   1.923       .  S
C1670      C1671   1.407       .  A
C1671      C1672   1.412   1_655  A
C1671     Br1678   1.925       .  S
C1672      C1673   1.414       .  A
C1672     Br1677   1.928       .  S
C1673      C1674   1.409       .  A
C1674     Br1675   1.929       .  S
C1679      C1680   1.412       .  A
C1679      C1684   1.412       .  A
C1679     Br1686   1.936       .  S
C1680      C1681   1.410       .  A
C1681      C1682   1.410       .  A
C1681     Br1688   1.929       .  S
C1682      C1683   1.408       .  A
C1682     Br1687   1.922       .  S
C1683      C1684   1.410       .  A
C1684     Br1685   1.921       .  S
C1689      C1690   1.400       .  A
C1689      C1694   1.407       .  A
C1689     Br1696   1.929       .  S
C1690      C1691   1.423   1_655  A
C1691      C1692   1.415       .  A
C1691     Br1698   1.928       .  S
C1692      C1693   1.403       .  A
C1692     Br1697   1.926       .  S
C1693      C1694   1.416   1_455  A
C1694     Br1695   1.918       .  S
C1699      C1700   1.407       .  A
C1699      C1704   1.410       .  A
C1699     Br1706   1.928       .  S
C1700      C1701   1.413       .  A
C1701      C1702   1.413       .  A
C1701     Br1708   1.923       .  S
C1702      C1703   1.408       .  A
C1702     Br1707   1.928       .  S
C1703      C1704   1.415       .  A
C1704     Br1705   1.927       .  S
C1709      C1710   1.429       .  A
C1709      C1714   1.414       .  A
C1709     Br1716   1.937       .  S
C1710      C1711   1.420       .  A
C1711      C1712   1.417       .  A
C1711     Br1718   1.930       .  S
C1712      C1713   1.407       .  A
C1712     Br1717   1.924       .  S
C1713      C1714   1.411       .  A
C1714     Br1715   1.935       .  S
C1719      C1720   1.427       .  A
C1719      C1724   1.410       .  A
C1719     Br1726   1.933       .  S
C1720      C1721   1.420       .  A
C1721      C1722   1.413       .  A
C1721     Br1728   1.932       .  S
C1722      C1723   1.407       .  A
C1722     Br1727   1.929       .  S
C1723      C1724   1.405       .  A
C1724     Br1725   1.935       .  S
C1729      C1730   1.406       .  A
C1729      C1734   1.413       .  A
C1729     Br1736   1.935       .  S
C1730      C1731   1.419   1_545  A
C1731      C1732   1.416       .  A
C1731     Br1738   1.925       .  S
C1732      C1733   1.412       .  A
C1732     Br1737   1.933       .  S
C1733      C1734   1.425   1_565  A
C1734     Br1735   1.927       .  S
C1739      C1740   1.403       .  A
C1739      C1744   1.411       .  A
C1739     Br1746   1.932       .  S
C1740      C1741   1.418       .  A
C1741      C1742   1.414       .  A
C1741     Br1748   1.930       .  S
C1742      C1743   1.413       .  A
C1742     Br1747   1.933       .  S
C1743      C1744   1.422       .  A
C1744     Br1745   1.919       .  S
C1749      C1750   1.412       .  A
C1749      C1754   1.415       .  A
C1749     Br1756   1.933       .  S
C1750      C1751   1.425       .  A
C1751      C1752   1.412       .  A
C1751     Br1758   1.919       .  S
C1752      C1753   1.404       .  A
C1752     Br1757   1.936       .  S
C1753      C1754   1.421       .  A
C1754     Br1755   1.928       .  S
C1759      C1760   1.408   1_565  A
C1759      C1764   1.410       .  A
C1759     Br1766   1.912       .  S
C1760      C1761   1.405       .  A
C1761      C1762   1.412       .  A
C1761     Br1768   1.925       .  S
C1762      C1763   1.417   1_545  A
C1762     Br1767   1.928       .  S
C1763      C1764   1.405       .  A
C1764     Br1765   1.927       .  S
C1769      C1770   1.396       .  A
C1769      C1774   1.407       .  A
C1769     Br1776   1.931       .  S
C1770      C1771   1.415       .  A
C1771      C1772   1.420       .  A
C1771     Br1778   1.921       .  S
C1772      C1773   1.414       .  A
C1772     Br1777   1.929       .  S
C1773      C1774   1.425       .  A
C1774     Br1775   1.937       .  S
C1779      C1780   1.414       .  A
C1779      C1784   1.409       .  A
C1779     Br1786   1.932       .  S
C1780      C1781   1.410       .  A
C1781      C1782   1.413       .  A
C1781     Br1788   1.924   1_565  S
C1782      C1783   1.413       .  A
C1782     Br1787   1.925       .  S
C1783      C1784   1.406       .  A
C1784     Br1785   1.921       .  S
C1789      C1790   1.417   1_554  A
C1789      C1794   1.412       .  A
C1789     Br1796   1.933       .  S
C1790      C1791   1.414       .  A
C1791      C1792   1.413   1_556  A
C1791     Br1798   1.932       .  S
C1792      C1793   1.415       .  A
C1792     Br1797   1.933   1_554  S
C1793      C1794   1.410       .  A
C1794     Br1795   1.930       .  S
C1799      C1800   1.411       .  A
C1799      C1804   1.415       .  A
C1799     Br1806   1.929       .  S
C1800      C1801   1.419       .  A
C1801      C1802   1.403       .  A
C1801     Br1808   1.943       .  S
C1802      C1803   1.407       .  A
C1802     Br1807   1.934       .  S
C1803      C1804   1.414       .  A
C1804     Br1805   1.923       .  S
C1809      C1810   1.404       .  A
C1809      C1814   1.413       .  A
C1809     Br1816   1.924       .  S
C1810      C1811   1.407       .  A
C1811      C1812   1.414       .  A
C1811     Br1818   1.909       .  S
C1812      C1813   1.410       .  A
C1812     Br1817   1.917       .  S
C1813      C1814   1.432       .  A
C1814     Br1815   1.931       .  S
C1819      C1820   1.404       .  A
C1819      C1824   1.407       .  A
C1819     Br1826   1.934       .  S
C1820      C1821   1.413       .  A
C1821      C1822   1.424   1_556  A
C1821     Br1828   1.924       .  S
C1822      C1823   1.426       .  A
C1822     Br1827   1.932       .  S
C1823      C1824   1.425   1_554  A
C1824     Br1825   1.932       .  S
C1829      C1830   1.402       .  A
C1829      C1834   1.416       .  A
C1829     Br1836   1.926       .  S
C1830      C1831   1.413       .  A
C1831      C1832   1.408       .  A
C1831     Br1838   1.922       .  S
C1832      C1833   1.407       .  A
C1832     Br1837   1.924       .  S
C1833      C1834   1.427       .  A
C1834     Br1835   1.929       .  S
C1839      C1840   1.407       .  A
C1839      C1844   1.410       .  A
C1839     Br1846   1.935       .  S
C1840      C1841   1.411       .  A
C1841      C1842   1.418       .  A
C1841     Br1848   1.933       .  S
C1842      C1843   1.431       .  A
C1842     Br1847   1.937       .  S
C1843      C1844   1.429       .  A
C1844     Br1845   1.939       .  S
