geometry optimzed in LAMMPS
_audit_creation_date              2020-12-01 
_audit_creation_method            'lammps2cif' 
_symmetry_space_group_name_H-M    'P1' 
_symmetry_Int_Tables_number       1 
_symmetry_cell_setting            triclinic 
loop_ 
_symmetry_equiv_pos_as_xyz 
  x,y,z 
_cell_length_a                    60.72304964 
_cell_length_b                    59.988583964145754 
_cell_length_c                    31.874619738960728 
_cell_angle_alpha                 89.27826721166264 
_cell_angle_beta                  89.2648264806188 
_cell_angle_gamma                 91.23895547384905 
loop_ 
_atom_site_label 
_atom_site_type_symbol 
_atom_site_fract_x 
_atom_site_fract_y 
_atom_site_fract_z 
_atom_site_charge 
N1          N  0.46712395  0.99301998  0.30712920    -0.26700
N2          N  0.47808456  0.00684045  0.33166342    -0.34600
C3          C  0.49918786  0.00065789  0.33338321     0.01600
C4          C  0.50166989  0.98204851  0.30887669     0.07600
C5          C  0.48098302  0.97750952  0.29304015    -0.05500
H6          H  0.51109867  0.00742975  0.35501133     0.08300
H7          H  0.47593763  0.96286428  0.27592527     0.09500
Cu8        Cu  0.46305814  0.02849726  0.37237821     0.44200
Cu9        Cu  0.43312868  0.99322313  0.30058928     0.42000
Cu10       Cu  0.40394689  0.02752187  0.37471643     0.43900
N11         N  0.44463819  0.03969751  0.42251189    -0.34100
N12         N  0.42287825  0.03935751  0.42331348    -0.28400
C13         C  0.41580268  0.04278116  0.46275728    -0.04500
C14         C  0.43399587  0.04503923  0.48815708     0.07700
C15         C  0.45200560  0.04320644  0.46151762     0.01500
H16         H  0.39877459  0.04112968  0.47286777     0.09200
H17         H  0.46905727  0.04197993  0.47047646     0.08300
N18         N  0.38860544  0.00928177  0.32851102    -0.35600
N19         N  0.39911769  0.99651372  0.30168813    -0.27800
C20         C  0.38433067  0.98700599  0.27600347    -0.03000
C21         C  0.36356367  0.99410429  0.28738510     0.05600
C22         C  0.36692319  0.00823343  0.32069660     0.03700
H23         H  0.38844294  0.97623993  0.25018594     0.08800
H24         H  0.35453624  0.01740324  0.33758683     0.07600
N25         N  0.46463624  0.98484358  0.71526451    -0.26700
N26         N  0.47611484  0.99937175  0.69182470    -0.34600
C27         C  0.49769479  0.99543587  0.69597770     0.01600
C28         C  0.49996986  0.97747267  0.72304014     0.07600
C29         C  0.47865428  0.97100973  0.73427075    -0.05500
H30         H  0.51059522  0.00332521  0.67690011     0.08300
H31         H  0.47365264  0.95631981  0.75234883     0.09500
Cu32       Cu  0.46205550  0.01977142  0.64700233     0.44200
Cu33       Cu  0.43040267  0.98318491  0.71659677     0.42000
Cu34       Cu  0.40284390  0.02128577  0.64649152     0.43900
N35         N  0.44424027  0.03310877  0.59795623    -0.34100
N36         N  0.42251215  0.03390208  0.59823995    -0.28400
C37         C  0.41568998  0.04010485  0.56001371    -0.04500
C38         C  0.43399063  0.04317405  0.53419744     0.07700
C39         C  0.45183877  0.03871371  0.55933622     0.01500
H40         H  0.39862002  0.04030245  0.55080585     0.09200
H41         H  0.46887728  0.03765092  0.54942524     0.08300
N42         N  0.38669591  0.00231908  0.69221859    -0.35600
N43         N  0.39659111  0.98788097  0.71691923    -0.27800
C44         C  0.38166977  0.97901059  0.74419245    -0.03000
C45         C  0.36149090  0.98833357  0.73622196     0.05600
C46         C  0.36527711  0.00307899  0.70314752     0.03700
H47         H  0.38549392  0.96772644  0.76965662     0.08800
H48         H  0.35358610  0.01430042  0.68938510     0.07600
N49         N  0.55284732  0.95266123  0.31789812    -0.26700
N50         N  0.53996594  0.94091068  0.34407505    -0.34600
C51         C  0.51941089  0.94864294  0.34213122     0.01600
C52         C  0.51935672  0.96607836  0.31348428     0.07600
C53         C  0.54083973  0.96841817  0.29905713    -0.05500
H54         H  0.50592124  0.94317228  0.36251768     0.08300
H55         H  0.54746999  0.98124747  0.27805408     0.09500
Cu56       Cu  0.55130309  0.91804304  0.38746767     0.44200
Cu57       Cu  0.58641119  0.94779841  0.31144760     0.42000
Cu58       Cu  0.60946940  0.90820612  0.38375479     0.43900
N59         N  0.56775796  0.90150051  0.43461292    -0.34100
N60         N  0.58908576  0.89769115  0.43262318    -0.28400
C61         C  0.59591287  0.89101005  0.47048505    -0.04500
C62         C  0.57813885  0.89096095  0.49801034     0.07700
C63         C  0.56045495  0.89743637  0.47406995     0.01500
H64         H  0.61302658  0.88908797  0.47843586     0.09200
H65         H  0.54425137  0.90164734  0.48552859     0.08300
N66         N  0.62750401  0.92398732  0.33638667    -0.35600
N67         N  0.61906258  0.93842054  0.30970993    -0.27800
C68         C  0.63447232  0.94420197  0.28071809    -0.03000
C69         C  0.65353777  0.93307694  0.29004116     0.05600
C70         C  0.64855121  0.92035903  0.32539631     0.03700
H71         H  0.63165627  0.95472821  0.25359446     0.08800
H72         H  0.65896768  0.90830628  0.34039795     0.07600
N73         N  0.55467413  0.95454053  0.72035126    -0.26700
N74         N  0.54301806  0.93904671  0.70075125    -0.34600
C75         C  0.52156285  0.94384537  0.70329744     0.01600
C76         C  0.51944010  0.96346381  0.72485300     0.07600
C77         C  0.54075660  0.96995883  0.73490128    -0.05500
H78         H  0.50875506  0.93521919  0.68616511     0.08300
H79         H  0.54588447  0.98550569  0.74903054     0.09500
Cu80       Cu  0.55592455  0.91634882  0.65947160     0.44200
Cu81       Cu  0.58918765  0.95532725  0.72182770     0.42000
Cu82       Cu  0.61382226  0.91996521  0.64455362     0.43900
N83         N  0.57167795  0.90250985  0.60852433    -0.34100
N84         N  0.59330722  0.90342702  0.60399525    -0.28400
C85         C  0.59881587  0.89679463  0.56535834    -0.04500
C86         C  0.57969271  0.89200215  0.54390307     0.07700
C87         C  0.56274178  0.89566392  0.57233575     0.01500
H88         H  0.61530764  0.89821513  0.55227931     0.09200
H89         H  0.54530935  0.89573154  0.56583985     0.08300
N90         N  0.63190583  0.93797005  0.68705652    -0.35600
N91         N  0.62320492  0.95056664  0.71640066    -0.27800
C92         C  0.63934347  0.95700785  0.74261024    -0.03000
C93         C  0.65903902  0.94820850  0.72859492     0.05600
C94         C  0.65361371  0.93622488  0.69340359     0.03700
H95         H  0.63667655  0.96586656  0.77148739     0.08800
H96         H  0.66426159  0.92534346  0.67602566     0.07600
C97         C  0.10371959  0.80403307  0.02391830     0.87000
C98         C  0.08166534  0.81604339  0.01879329    -0.53200
C99         C  0.06370107  0.80236409  0.01676073     0.10000
C100        C  0.06903783  0.77749246  0.02220016     0.20900
C101        C  0.09947669  0.79014871  0.06519495    -0.53900
C102        C  0.08112812  0.77607123  0.06483177     0.10100
C103        C  0.10456917  0.78643734  0.98921934    -0.53500
C104        C  0.08675634  0.77235844  0.98838499     0.10600
H105        H  0.08027345  0.83406386  0.01781261     0.15100
H106        H  0.05394129  0.76708643  0.01967085     0.00900
H107        H  0.10969309  0.79157448  0.09250368     0.15500
H108        H  0.11851524  0.78486373  0.96786776     0.15200
C109        C  0.17023206  0.87844652  0.02406890     0.87000
C110        C  0.18704662  0.88223960  0.98727725    -0.53200
C111        C  0.19864361  0.90203251  0.98862385     0.10000
C112        C  0.19271740  0.91600278  0.02694275     0.20900
C113        C  0.18381537  0.88168472  0.06478218    -0.53900
C114        C  0.19589295  0.90107429  0.06564885     0.10100
C115        C  0.15585262  0.89962270  0.02345482    -0.53500
C116        C  0.16754699  0.91930947  0.02444779     0.10600
H117        H  0.18867875  0.87080719  0.96134584     0.15100
H118        H  0.20279522  0.93152229  0.02855347     0.00900
H119        H  0.18296707  0.87095359  0.09223274     0.15500
H120        H  0.13798080  0.89893465  0.02371826     0.15200
C121        C  0.28710072  0.98056586  0.85658260     0.87000
C122        C  0.29772110  0.98086785  0.90020174    -0.53200
C123        C  0.28328764  0.98192101  0.93282656     0.10000
C124        C  0.25897930  0.98215859  0.91927565     0.20900
C125        C  0.27019931  0.96054086  0.85894713    -0.53900
C126        C  0.25580603  0.96099650  0.89237349     0.10100
C127        C  0.27180148  0.00092362  0.85521889    -0.53500
C128        C  0.25749361  0.00214623  0.88826447     0.10600
H129        H  0.31541266  0.98049041  0.90478768     0.15100
H130        H  0.24728010  0.98294939  0.94602057     0.00900
H131        H  0.26863832  0.94739083  0.83641111     0.15500
H132        H  0.27214437  0.01324000  0.82994057     0.15200
C133        C  0.28480421  0.97720697  0.18534661     0.87000
C134        C  0.26649624  0.99514500  0.18347713    -0.53200
C135        C  0.25222672  0.99267324  0.15074835     0.10000
C136        C  0.25732763  0.97207485  0.12388489     0.20900
C137        C  0.27080598  0.95503724  0.18763528    -0.53900
C138        C  0.25682877  0.95232333  0.15464931     0.10100
C139        C  0.29558210  0.97762312  0.14151664    -0.53500
C140        C  0.28134668  0.97513872  0.10970913     0.10600
H141        H  0.26457110  0.00796747  0.20683339     0.15100
H142        H  0.24618496  0.96915338  0.09731862     0.00900
H143        H  0.27060849  0.94328587  0.21368719     0.15500
H144        H  0.31310253  0.98066155  0.13598393     0.15200
C145        C  0.01983139  0.66903536  0.90526360     0.87000
C146        C  0.00114989  0.68550390  0.89753136    -0.53200
C147        C  0.00250691  0.70442075  0.92032651     0.10000
C148        C  0.02304668  0.70539609  0.94833889     0.20900
C149        C  0.04181748  0.68229135  0.89831189    -0.53900
C150        C  0.04321457  0.70152448  0.92021508     0.10100
C151        C  0.01960826  0.66523544  0.95369639    -0.53500
C152        C  0.02087427  0.68432403  0.97704630     0.10600
H153        H  0.98700456  0.68157108  0.87823582     0.15100
H154        H  0.02561583  0.72149726  0.96338066     0.00900
H155        H  0.05554569  0.67639358  0.87968211     0.15500
H156        H  0.01833507  0.64897259  0.96835400     0.15200
C157        C  0.01116510  0.69869461  0.23113868     0.87000
C158        C  0.03350655  0.71141401  0.22390211    -0.53200
C159        C  0.03495565  0.72288720  0.18671891     0.10000
C160        C  0.01380580  0.72124771  0.16090760     0.20900
C161        C  0.99339349  0.71702355  0.22663605    -0.53900
C162        C  0.99512853  0.72909493  0.19000345     0.10100
C163        C  0.00764275  0.68455355  0.19131659    -0.53500
C164        C  0.00932764  0.69613264  0.15467871     0.10600
H165        H  0.04731949  0.71025839  0.24504283     0.15100
H166        H  0.01517544  0.73072732  0.13079432     0.00900
H167        H  0.98017536  0.72013411  0.24851782     0.15500
H168        H  0.00379068  0.66679687  0.19235511     0.15200
C169        C  0.85543770  0.86294753  0.00586319     0.87000
C170        C  0.83955058  0.86157228  0.04409897    -0.53200
C171        C  0.82299337  0.87638217  0.04284342     0.10000
C172        C  0.82430506  0.89222103  0.00410836     0.20900
C173        C  0.84090949  0.86158730  0.96678559    -0.53900
C174        C  0.82480132  0.87693870  0.96533298     0.10100
C175        C  0.86380597  0.88762170  0.00698377    -0.53500
C176        C  0.84763665  0.90325292  0.00593733     0.10600
H177        H  0.84273618  0.85209324  0.07250227     0.15100
H178        H  0.81068979  0.90425514  0.00387318     0.00900
H179        H  0.84362729  0.84985513  0.94166731     0.15500
H180        H  0.88113971  0.89212667  0.00811701     0.15200
C181        C  0.93175558  0.80349887  0.01752227     0.87000
C182        C  0.95330942  0.81774174  0.01275352    -0.53200
C183        C  0.97191843  0.80573733  0.01423081     0.10000
C184        C  0.96748688  0.78083485  0.02259770     0.20900
C185        C  0.93338583  0.78476358  0.98508706    -0.53900
C186        C  0.95200844  0.77280017  0.98783261     0.10100
C187        C  0.93499389  0.79179379  0.06105957    -0.53500
C188        C  0.95402789  0.77969522  0.06413195     0.10600
H189        H  0.95391114  0.83579820  0.00998487     0.15100
H190        H  0.98256352  0.77180996  0.02257287     0.00900
H191        H  0.92077971  0.78124405  0.96208348     0.15500
H192        H  0.92411627  0.79433300  0.08773843     0.15200
C193        C  0.73408082  0.93949585  0.84166073     0.87000
C194        C  0.72121196  0.93484696  0.88302567    -0.53200
C195        C  0.73382707  0.93034596  0.91659209     0.10000
C196        C  0.75856655  0.93082496  0.90612831     0.20900
C197        C  0.74981921  0.95924452  0.85474926    -0.53900
C198        C  0.76306097  0.95471121  0.88878424     0.10100
C199        C  0.74966942  0.91965133  0.83557002    -0.53500
C200        C  0.76218758  0.91504253  0.86947463     0.10600
H201        H  0.70353973  0.93699026  0.88617724     0.15100
H202        H  0.76855797  0.92519665  0.93239919     0.00900
H203        H  0.74845789  0.97612536  0.84338679     0.15500
H204        H  0.75048773  0.90999724  0.80702761     0.15200
C205        C  0.72547276  0.93587697  0.16899083     0.87000
C206        C  0.74407721  0.91879382  0.16507629    -0.53200
C207        C  0.75884880  0.92300723  0.13275434     0.10000
C208        C  0.75365458  0.94464636  0.10829673     0.20900
C209        C  0.73742491  0.95879207  0.17255250    -0.53900
C210        C  0.75259523  0.96313903  0.14172682     0.10100
C211        C  0.71514426  0.93718218  0.12490855    -0.53500
C212        C  0.72987069  0.94105116  0.09322037     0.10600
H213        H  0.74531015  0.90474476  0.18655941     0.15100
H214        H  0.76497420  0.94883933  0.08195989     0.00900
H215        H  0.73436186  0.97070102  0.19714182     0.15500
H216        H  0.69775227  0.93495641  0.11854836     0.15200
C217        C  0.08557929  0.11550435  0.02485741     0.87000
C218        C  0.08630776  0.13599948  0.05377752    -0.53200
C219        C  0.06990164  0.15075492  0.04721436     0.10000
C220        C  0.05449937  0.14383107  0.01167295     0.20900
C221        C  0.06176538  0.10552524  0.03136192    -0.53900
C222        C  0.04520664  0.12048435  0.02538438     0.10100
C223        C  0.08484881  0.12474674  0.97928426    -0.53500
C224        C  0.06884855  0.13970117  0.97215946     0.10600
H225        H  0.09768097  0.13758452  0.07963705     0.15100
H226        H  0.04259550  0.15691278  0.00641546     0.00900
H227        H  0.05796349  0.08802249  0.03681500     0.15500
H228        H  0.09559368  0.11914517  0.95421660     0.15200
C229        C  0.15881140  0.05241995  0.01532996     0.87000
C230        C  0.17540071  0.05053942  0.05165124    -0.53200
C231        C  0.19117591  0.03494830  0.04589805     0.10000
C232        C  0.18860005  0.02272794  0.00405997     0.20900
C233        C  0.17310934  0.05613254  0.97488244    -0.53900
C234        C  0.18885692  0.04050975  0.96998409     0.10100
C235        C  0.14940453  0.02829450  0.00941661    -0.53500
C236        C  0.16509693  0.01255634  0.00416223     0.10600
H237        H  0.17379326  0.05986518  0.08044610     0.15100
H238        H  0.20163486  0.01106172  0.99719541     0.00900
H239        H  0.17065110  0.06913861  0.95159642     0.15500
H240        H  0.13199457  0.02398349  0.01094334     0.15200
C241        C  0.84228830  0.03857433  0.02753669     0.87000
C242        C  0.82593443  0.03518413  0.99036567    -0.53200
C243        C  0.81337760  0.01583772  0.99324382     0.10000
C244        C  0.81907234  0.00170204  0.03249907     0.20900
C245        C  0.82773146  0.03625802  0.06747695    -0.53900
C246        C  0.81586678  0.01691425  0.07048886     0.10100
C247        C  0.85604612  0.01708143  0.02561867    -0.53500
C248        C  0.84400654  0.99779768  0.02885166     0.10600
H249        H  0.82501499  0.04615381  0.96350575     0.15100
H250        H  0.80941311  0.98597310  0.03487110     0.00900
H251        H  0.82712608  0.04884858  0.09163070     0.15500
H252        H  0.87368003  0.01721621  0.01939645     0.15200
C253        C  0.91080682  0.11079660  0.02604331     0.87000
C254        C  0.91044937  0.12770417  0.06187800    -0.53200
C255        C  0.92824454  0.14178364  0.06257565     0.10000
C256        C  0.94506966  0.13789728  0.02658970     0.20900
C257        C  0.91402515  0.12511496  0.98532594    -0.53900
C258        C  0.93198666  0.13944538  0.98502086     0.10100
C259        C  0.93324877  0.09898826  0.02934775    -0.53500
C260        C  0.95106228  0.11307331  0.03077420     0.10600
H261        H  0.89731662  0.12819677  0.08528343     0.15100
H262        H  0.95982325  0.14912473  0.02750197     0.00900
H263        H  0.90359374  0.12351790  0.95836338     0.15500
H264        H  0.93495477  0.08101415  0.02860827     0.15200
C265        C  0.00121888  0.21886809  0.82153965     0.87000
C266        C  0.02082958  0.20265501  0.82550669    -0.53200
C267        C  0.01993842  0.18912277  0.86008880     0.10000
C268        C  0.99976982  0.19388303  0.88842013     0.20900
C269        C  0.98003246  0.20392607  0.82592720    -0.53900
C270        C  0.97915970  0.19112928  0.86166395     0.10100
C271        C  0.00235144  0.23197161  0.86332866    -0.53500
C272        C  0.00133643  0.21886642  0.89849085     0.10600
H273        H  0.03534744  0.20279940  0.80566632     0.15100
H274        H  0.99803473  0.18387772  0.91683384     0.00900
H275        H  0.96621701  0.20500293  0.80479495     0.15500
H276        H  0.00396428  0.24999742  0.86467220     0.15200
C277        C  0.99295492  0.24360706  0.14791715     0.87000
C278        C  0.98977590  0.24605784  0.09972227    -0.53200
C279        C  0.98868948  0.22634496  0.07827122     0.10000
C280        C  0.98990507  0.20595507  0.10826890     0.20900
C281        C  0.97253829  0.22894558  0.16055384    -0.53900
C282        C  0.97124263  0.20916006  0.14029260     0.10100
C283        C  0.01323071  0.22866850  0.15228161    -0.53500
C284        C  0.01201807  0.20908825  0.13114901     0.10600
H285        H  0.98841720  0.26184977  0.08361434     0.15100
H286        H  0.98741753  0.18950418  0.09419151     0.00900
H287        H  0.95935896  0.23445317  0.18100503     0.15500
H288        H  0.02825358  0.23428422  0.16739215     0.15200
N289        N  0.00560890  0.42631352  0.30157541    -0.26700
N290        N  0.01905616  0.43464310  0.33001213    -0.34600
C291        C  0.01408846  0.45600301  0.33679206     0.01600
C292        C  0.99671915  0.46155497  0.31153008     0.07600
C293        C  0.99152131  0.44228056  0.28992524    -0.05500
H294        H  0.02119373  0.46609937  0.36123192     0.08300
H295        H  0.97764011  0.43961128  0.26959996     0.09500
Cu296      Cu  0.03988149  0.41601911  0.36662278     0.44200
Cu297      Cu  0.00546728  0.39281216  0.28412485     0.42000
Cu298      Cu  0.03811813  0.35726201  0.35073713     0.43900
N299        N  0.05271972  0.39345967  0.40879918    -0.34100
N300        N  0.05167755  0.37169956  0.40311686    -0.28400
C301        C  0.05763923  0.36123701  0.43855892    -0.04500
C302        C  0.06262643  0.37721685  0.46803477     0.07700
C303        C  0.05945712  0.39748216  0.44806139     0.01500
H304        H  0.05672709  0.34339232  0.44344332     0.09200
H305        H  0.05999116  0.41378894  0.46211920     0.08300
N306        N  0.02106165  0.34590720  0.29933576    -0.35600
N307        N  0.00910858  0.35863919  0.27471181    -0.27800
C308        C  0.00039506  0.34588185  0.24434049    -0.03000
C309        C  0.00707296  0.32412274  0.25049827     0.05600
C310        C  0.02020325  0.32484524  0.28555495     0.03700
H311        H  0.99001405  0.35199129  0.21948465     0.08800
H312        H  0.02880604  0.31109391  0.29969547     0.07600
N313        N  0.03862154  0.39954177  0.72076693    -0.26700
N314        N  0.05025238  0.41037634  0.69135221    -0.34600
C315        C  0.04749438  0.43237671  0.69573404     0.01600
C316        C  0.03344878  0.43562994  0.72939073     0.07600
C317        C  0.02797738  0.41445701  0.74429605    -0.05500
H318        H  0.05286938  0.44484614  0.67275964     0.08300
H319        H  0.01535270  0.41013777  0.76740898     0.09500
Cu320      Cu  0.06297645  0.39557541  0.63837933     0.44200
Cu321      Cu  0.03346022  0.36519939  0.72149457     0.42000
Cu322      Cu  0.04768122  0.33829688  0.62403885     0.43900
N323        N  0.06557707  0.37973072  0.58136584    -0.34100
N324        N  0.06010482  0.35851968  0.57631018    -0.28400
C325        C  0.06007124  0.35398010  0.53517460    -0.04500
C326        C  0.06544223  0.37339357  0.51321361     0.07700
C327        C  0.06892471  0.38938203  0.54345549     0.01500
H328        H  0.05441483  0.33834128  0.52226107     0.09200
H329        H  0.07178951  0.40705154  0.53828490     0.08300
N330        N  0.03271425  0.32196420  0.67432955    -0.35600
N331        N  0.02801107  0.33149000  0.71039869    -0.27800
C332        C  0.01910157  0.31599186  0.73669589    -0.03000
C333        C  0.01801539  0.29577898  0.71605882     0.05600
C334        C  0.02666525  0.30031796  0.67643141     0.03700
H335        H  0.01407829  0.31913294  0.76875889     0.08800
H336        H  0.02847843  0.28882314  0.65084143     0.07600
N337        N  0.97681133  0.51681662  0.32915842    -0.26700
N338        N  0.96564058  0.50513300  0.35806750    -0.34600
C339        C  0.96891417  0.48332204  0.35210088     0.01600
C340        C  0.98285121  0.48098228  0.31791521     0.07600
C341        C  0.98773933  0.50260243  0.30441418    -0.05500
H342        H  0.96394535  0.47032908  0.37429750     0.08300
H343        H  0.00008400  0.50766943  0.28131819     0.09500
Cu344      Cu  0.95269170  0.51867122  0.41221773     0.44200
Cu345      Cu  0.98023034  0.55149715  0.33025840     0.42000
Cu346      Cu  0.96600819  0.57705880  0.42827763     0.43900
N347        N  0.94928172  0.53431470  0.46942760    -0.34100
N348        N  0.95403941  0.55567554  0.47488909    -0.28400
C349        C  0.95309006  0.56015709  0.51599577    -0.04500
C350        C  0.94781007  0.54062449  0.53763232     0.07700
C351        C  0.94543328  0.52455109  0.50714647     0.01500
H352        H  0.95783388  0.57600396  0.52924146     0.09200
H353        H  0.94282390  0.50683067  0.51213425     0.08300
N354        N  0.97906254  0.59485268  0.37759712    -0.35600
N355        N  0.98357039  0.58562054  0.34116331    -0.27800
C356        C  0.99136631  0.60153694  0.31453776    -0.03000
C357        C  0.99216197  0.62175021  0.33531501     0.05600
C358        C  0.98420466  0.61678120  0.37536696     0.03700
H359        H  0.99628750  0.59856630  0.28237865     0.08800
H360        H  0.98262933  0.62810411  0.40130054     0.07600
N361        N  0.01153121  0.49072001  0.74281027    -0.26700
N362        N  0.99662431  0.48157444  0.71805921    -0.34600
C363        C  0.00139439  0.46006047  0.71245286     0.01600
C364        C  0.02013214  0.45543541  0.73468907     0.07600
C365        C  0.02633185  0.47525993  0.75317332    -0.05500
H366        H  0.99295226  0.44911364  0.69092650     0.08300
H367        H  0.04110837  0.47853793  0.77084979     0.09500
Cu368      Cu  0.97360281  0.49927811  0.68471233     0.44200
Cu369      Cu  0.01228737  0.52420618  0.75816805     0.42000
Cu370      Cu  0.97597743  0.55843536  0.69770339     0.43900
N371        N  0.95966359  0.52138946  0.64292566    -0.34100
N372        N  0.96086456  0.54321502  0.64772806    -0.28400
C373        C  0.95479272  0.55331924  0.61203895    -0.04500
C374        C  0.94971514  0.53707929  0.58312700     0.07700
C375        C  0.95277003  0.51699535  0.60387411     0.01500
H376        H  0.95615664  0.57107174  0.60632195     0.09200
H377        H  0.95244345  0.50057955  0.59023345     0.08300
N378        N  0.99476506  0.57029986  0.74638519    -0.35600
N379        N  0.00805888  0.55786363  0.76883289    -0.27800
C380        C  0.01698435  0.57040384  0.79920112    -0.03000
C381        C  0.00902414  0.59174185  0.79520944     0.05600
C382        C  0.99498389  0.59107521  0.76152056     0.03700
H383        H  0.02801650  0.56432771  0.82295709     0.08800
H384        H  0.98508534  0.60451517  0.74974854     0.07600
C385        C  0.99619459  0.26528689  0.17388734    -0.04800
C386        C  0.99220151  0.26474939  0.21821007    -0.01900
C387        C  0.99434072  0.28427487  0.24230624     0.03100
C388        C  0.00261073  0.30427839  0.22397817    -0.04800
C389        C  0.00879753  0.30460399  0.18129345    -0.01900
C390        C  0.00623207  0.28526650  0.15665024     0.03100
C391        C  0.98764863  0.24386208  0.24051586     0.37700
C392        C  0.01922876  0.32460892  0.16318595     0.37700
C393        C  0.01622970  0.28609163  0.11514227     0.36100
C394        C  0.98778313  0.28378103  0.28630793     0.36100
N395        N  0.02427289  0.28772180  0.08209800    -0.38700
N396        N  0.98245077  0.28343955  0.32130541    -0.38700
N397        N  0.02761608  0.34048560  0.14877254    -0.38100
N398        N  0.98412207  0.22729291  0.25862743    -0.38100
C399        C  0.00109982  0.23513509  0.78348235    -0.04800
C400        C  0.98633371  0.25318718  0.78354096    -0.01900
C401        C  0.99102212  0.27247190  0.75901657     0.03100
C402        C  0.01040349  0.27388229  0.73413024    -0.04800
C403        C  0.02250673  0.25430556  0.72768732    -0.01900
C404        C  0.01676938  0.23456650  0.75012363     0.03100
C405        C  0.96631741  0.25210197  0.80885765     0.37700
C406        C  0.04152515  0.25441654  0.69965982     0.37700
C407        C  0.02511502  0.21363859  0.73508637     0.36100
C408        C  0.97576928  0.29077286  0.75915650     0.36100
N409        N  0.03182022  0.19704064  0.72254821    -0.38700
N410        N  0.96352955  0.30529651  0.75907506    -0.38700
N411        N  0.05675275  0.25434383  0.67744296    -0.38100
N412        N  0.95011777  0.25126062  0.82837334    -0.38100
C413        C  0.00114812  0.22652086  0.94326761    -0.04800
C414        C  0.01265113  0.21352153  0.97158496    -0.01900
C415        C  0.00486155  0.20996524  0.01223151     0.03100
C416        C  0.99054401  0.22533257  0.03082650    -0.04800
C417        C  0.98079582  0.24132588  0.00364969    -0.01900
C418        C  0.98591793  0.24169853  0.95980191     0.03100
C419        C  0.03542813  0.20945568  0.96319896     0.37700
C420        C  0.96354540  0.25541269  0.01932425     0.37700
C421        C  0.97661378  0.25844653  0.93265358     0.36100
C422        C  0.00914954  0.18850270  0.03071289     0.36100
N423        N  0.96922219  0.27203459  0.91128505    -0.38700
N424        N  0.01134939  0.17092017  0.04519479    -0.38700
N425        N  0.94958087  0.26655030  0.03152129    -0.38100
N426        N  0.05423885  0.20821555  0.95907973    -0.38100
C427        C  0.93158345  0.15879301  0.09599728    -0.04800
C428        C  0.94426666  0.15404780  0.13157350    -0.01900
C429        C  0.95409170  0.17170950  0.15397955     0.03100
C430        C  0.95157212  0.19377397  0.14012144    -0.04800
C431        C  0.93396576  0.19829852  0.11309718    -0.01900
C432        C  0.92353005  0.18055364  0.09145417     0.03100
C433        C  0.94527509  0.13150488  0.14757721     0.37700
C434        C  0.92749438  0.22110559  0.10625345     0.37700
C435        C  0.90588437  0.18480291  0.06243763     0.36100
C436        C  0.96501948  0.16770164  0.19325052     0.36100
N437        N  0.89183444  0.18812294  0.03913395    -0.38700
N438        N  0.97265350  0.16459605  0.22580901    -0.38700
N439        N  0.92212789  0.23934633  0.10154444    -0.38100
N440        N  0.94540427  0.11388687  0.16263735    -0.38100
C441        C  0.95870935  0.18072488  0.88134226    -0.04800
C442        C  0.95110603  0.19030154  0.91821702    -0.01900
C443        C  0.94495281  0.17682826  0.95278078     0.03100
C444        C  0.93906908  0.15407025  0.94739262    -0.04800
C445        C  0.93992690  0.14610348  0.90515820    -0.01900
C446        C  0.95158592  0.15875902  0.87333772     0.03100
C447        C  0.94478354  0.21333678  0.91723461     0.37700
C448        C  0.92943622  0.12517796  0.89385917     0.37700
C449        C  0.95486044  0.15004796  0.83169156     0.36100
C450        C  0.94658721  0.18708013  0.99304101     0.36100
N451        N  0.95724407  0.14332751  0.79810029    -0.38700
N452        N  0.94976457  0.19675038  0.02347742    -0.38700
N453        N  0.92098108  0.10857832  0.88417916    -0.38100
N454        N  0.93776832  0.23109723  0.91622052    -0.38100
C455        C  0.85749273  0.05964150  0.03003905    -0.04800
C456        C  0.87443286  0.05997991  0.06049819    -0.01900
C457        C  0.89056849  0.07718122  0.06048985     0.03100
C458        C  0.89073858  0.09431953  0.02937266    -0.04800
C459        C  0.87090270  0.09694905  0.00665429    -0.01900
C460        C  0.85442757  0.07970169  0.00687879     0.03100
C461        C  0.87501658  0.04306526  0.09356777     0.37700
C462        C  0.86570218  0.11836905  0.98811687     0.37700
C463        C  0.83327457  0.08436862  0.98855893     0.36100
C464        C  0.90626500  0.07758722  0.09447926     0.36100
N465        N  0.81639117  0.08855889  0.97431144    -0.38700
N466        N  0.91845258  0.07752818  0.12205399    -0.38700
N467        N  0.86119780  0.13542107  0.97354472    -0.38100
N468        N  0.87557368  0.02985928  0.12028054    -0.38100
C469        C  0.97439317  0.10578619  0.02765493    -0.04800
C470        C  0.98693846  0.09941320  0.06263610    -0.01900
C471        C  0.01038756  0.10219625  0.06134774     0.03100
C472        C  0.02078094  0.11414678  0.02728241    -0.04800
C473        C  0.00721694  0.11967756  0.99336171    -0.01900
C474        C  0.98575609  0.11157742  0.99103043     0.03100
C475        C  0.97619455  0.08806692  0.09778314     0.37700
C476        C  0.01101379  0.13966532  0.97030619     0.37700
C477        C  0.97602889  0.10848163  0.95043977     0.36100
C478        C  0.02288311  0.09402567  0.09630426     0.36100
N479        N  0.96973085  0.10475348  0.91715992    -0.38700
N480        N  0.03168189  0.08674618  0.12518586    -0.38700
N481        N  0.01308348  0.15708794  0.95540545    -0.38100
N482        N  0.96836459  0.07810756  0.12569481    -0.38100
C483        C  0.03230173  0.19633912  0.11896948    -0.04800
C484        C  0.04712060  0.20478830  0.08751420    -0.01900
C485        C  0.06229668  0.19047903  0.06782095     0.03100
C486        C  0.06253765  0.16768501  0.07864889    -0.04800
C487        C  0.05124246  0.16061962  0.11554124    -0.01900
C488        C  0.03604420  0.17480410  0.13545788     0.03100
C489        C  0.04595568  0.22771820  0.07327604     0.37700
C490        C  0.05613950  0.13916902  0.13397759     0.37700
C491        C  0.02516031  0.16745514  0.17383912     0.36100
C492        C  0.07859381  0.19936903  0.03831292     0.36100
N493        N  0.01754003  0.16111500  0.20529932    -0.38700
N494        N  0.09199828  0.20690706  0.01590700    -0.38700
N495        N  0.06086383  0.12243071  0.14945153    -0.38100
N496        N  0.04528661  0.24593140  0.06114078    -0.38100
C497        C  0.06327715  0.14843831  0.92901404    -0.04800
C498        C  0.04714600  0.13757413  0.90465387    -0.01900
C499        C  0.03403704  0.15035834  0.87711009     0.03100
C500        C  0.03813345  0.17353323  0.87247034    -0.04800
C501        C  0.05905919  0.18173660  0.88489167    -0.01900
C502        C  0.07144677  0.16926738  0.91422870     0.03100
C503        C  0.04274138  0.11392589  0.91082442     0.37700
C504        C  0.06728133  0.20320593  0.86951509     0.37700
C505        C  0.09242856  0.17764417  0.92902269     0.36100
C506        C  0.01569078  0.13999065  0.85589072     0.36100
N507        N  0.10944704  0.18414844  0.94003176    -0.38700
N508        N  0.00129896  0.13130412  0.83867949    -0.38700
N509        N  0.07405183  0.22024519  0.85703573    -0.38100
N510        N  0.03924285  0.09502287  0.91565475    -0.38100
C511        C  0.10574238  0.10034554  0.03120957    -0.04800
C512        C  0.12690650  0.10779481  0.01639529    -0.01900
C513        C  0.14454009  0.09284384  0.01359019     0.03100
C514        C  0.14121806  0.07005501  0.02466556    -0.04800
C515        C  0.12270109  0.06489069  0.05095117    -0.01900
C516        C  0.10491414  0.07974571  0.05369167     0.03100
C517        C  0.13099164  0.13113432  0.00567410     0.37700
C518        C  0.12291978  0.04552438  0.07881417     0.37700
C519        C  0.08771524  0.07484057  0.08441528     0.36100
C520        C  0.16648206  0.10161202  0.00370546     0.36100
N521        N  0.07463353  0.07019922  0.10990372    -0.33100
N522        N  0.18399072  0.10872374  0.99627343    -0.38700
N523        N  0.12324023  0.03023342  0.10130196    -0.38100
N524        N  0.13435413  0.14974973  0.99744100    -0.38100
C525        C  0.80071010  0.01085843  0.10641746    -0.04800
C526        C  0.80660655  0.99449473  0.13605129    -0.01900
C527        C  0.79002703  0.98042660  0.15433654     0.03100
C528        C  0.76803226  0.98290997  0.14205069    -0.04800
C529        C  0.76210336  0.00355099  0.12461655    -0.01900
C530        C  0.77868379  0.01773486  0.10641155     0.03100
C531        C  0.82953008  0.99111403  0.14538709     0.37700
C532        C  0.73930590  0.01000331  0.12586570     0.37700
C533        C  0.77313605  0.03839790  0.08548737     0.36100
C534        C  0.79561393  0.96260938  0.18316876     0.36100
N535        N  0.76871826  0.05480548  0.06839625    -0.38700
N536        N  0.80008655  0.94832112  0.20604165    -0.38700
N537        N  0.72114681  0.01537049  0.12811180    -0.38100
N538        N  0.84772624  0.98831004  0.15385260    -0.38100
C539        C  0.72420344  0.93773217  0.04826218    -0.04800
C540        C  0.71960909  0.95592589  0.02174319    -0.01900
C541        C  0.72104741  0.95355349  0.97769742     0.03100
C542        C  0.72547342  0.93242107  0.96049668    -0.04800
C543        C  0.72455988  0.91361327  0.98705236    -0.01900
C544        C  0.72445690  0.91622744  0.03087085     0.03100
C545        C  0.71185347  0.97637012  0.03964017     0.37700
C546        C  0.72200086  0.89160848  0.96963276     0.37700
C547        C  0.72335347  0.89656312  0.05736922     0.36100
C548        C  0.71912700  0.97296602  0.95057544     0.36100
N549        N  0.72160594  0.88002801  0.07616673    -0.38700
N550        N  0.71768619  0.98854647  0.92908411    -0.38700
N551        N  0.71872999  0.87374943  0.95770050    -0.38100
N552        N  0.70483452  0.99253911  0.05335854    -0.38100
C553        C  0.77586872  0.97257602  0.91285819    -0.04800
C554        C  0.77479859  0.97296933  0.95731073    -0.01900
C555        C  0.78075381  0.99214072  0.97830604     0.03100
C556        C  0.79681379  0.00676386  0.96188120    -0.04800
C557        C  0.79920605  0.00712171  0.91745612    -0.01900
C558        C  0.78768914  0.99077826  0.89284309     0.03100
C559        C  0.77223535  0.95352372  0.98410665     0.37700
C560        C  0.81284618  0.02414290  0.89683704     0.37700
C561        C  0.78982817  0.99176806  0.84758015     0.36100
C562        C  0.76608588  0.99929082  0.01071209     0.36100
N563        N  0.79159734  0.99280556  0.81141231    -0.38700
N564        N  0.75241909  0.00485940  0.03343680    -0.38700
N565        N  0.82373387  0.03761602  0.87986020    -0.38100
N566        N  0.77174917  0.93809019  0.00628122    -0.38100
C567        C  0.85186717  0.92835179  0.00758869    -0.04800
C568        C  0.86671484  0.93867617  0.03639603    -0.01900
C569        C  0.86534238  0.96200658  0.04423948     0.03100
C570        C  0.85261779  0.97543577  0.01772913    -0.04800
C571        C  0.84465685  0.96591059  0.98141391    -0.01900
C572        C  0.84094502  0.94294752  0.97991533     0.03100
C573        C  0.88358478  0.92609974  0.05712600     0.37700
C574        C  0.84398608  0.97915251  0.94327933     0.37700
C575        C  0.82390644  0.93613385  0.95226162     0.36100
C576        C  0.87802319  0.97222043  0.07720952     0.36100
N577        N  0.80904144  0.93372425  0.93066146    -0.38700
N578        N  0.88860925  0.98017140  0.10322789    -0.38700
N579        N  0.84503822  0.98896443  0.91185052    -0.38100
N580        N  0.89745305  0.91641136  0.07339751    -0.38100
C581        C  0.77739256  0.90774550  0.12049992    -0.04800
C582        C  0.77427181  0.88415687  0.11639495    -0.01900
C583        C  0.78970237  0.87199714  0.09215542     0.03100
C584        C  0.81003061  0.88217006  0.08088959    -0.04800
C585        C  0.81551268  0.90213151  0.09962900    -0.01900
C586        C  0.79881680  0.91638436  0.11065310     0.03100
C587        C  0.75592388  0.87228389  0.13635189     0.37700
C588        C  0.83792694  0.90703437  0.11154619     0.37700
C589        C  0.80378681  0.93902818  0.09949673     0.36100
C590        C  0.78554460  0.84894470  0.08157604     0.36100
N591        N  0.80967525  0.95595513  0.08556392    -0.38700
N592        N  0.78238957  0.83035654  0.07389756    -0.38700
N593        N  0.85532032  0.91053774  0.12455770    -0.38100
N594        N  0.74165785  0.86239049  0.15294397    -0.38100
C595        C  0.77869599  0.89691766  0.87290790    -0.04800
C596        C  0.77331250  0.87843000  0.89873926    -0.01900
C597        C  0.78863598  0.87068756  0.92825322     0.03100
C598        C  0.81021048  0.87981644  0.92810202    -0.04800
C599        C  0.81719323  0.89289492  0.89287602    -0.01900
C600        C  0.80118918  0.90213515  0.86599737     0.03100
C601        C  0.75305232  0.86620772  0.89130185     0.37700
C602        C  0.84013367  0.89959850  0.88779381     0.37700
C603        C  0.80748381  0.91892823  0.83479192     0.36100
C604        C  0.78239277  0.85316235  0.95786965     0.36100
N605        N  0.81254675  0.93235494  0.80991126    -0.38700
N606        N  0.77736944  0.83887775  0.98098439    -0.38700
N607        N  0.85828398  0.90550212  0.88341159    -0.38100
N608        N  0.73743655  0.85568174  0.88381578    -0.38100
C609        C  0.87384118  0.84551373  0.00478495    -0.04800
C610        C  0.89241179  0.84879399  0.97780275    -0.01900
C611        C  0.91030463  0.83426123  0.97982023     0.03100
C612        C  0.91071158  0.81705628  0.01085761    -0.04800
C613        C  0.89006094  0.81026769  0.02840407    -0.01900
C614        C  0.87164114  0.82426847  0.02506971     0.03100
C615        C  0.89286361  0.86621517  0.94579407     0.37700
C616        C  0.88662328  0.78760552  0.04367865     0.37700
C617        C  0.85009303  0.81523445  0.03732652     0.36100
C618        C  0.92702703  0.83579616  0.94684354     0.36100
N619        N  0.83297746  0.80781433  0.04692870    -0.38700
N620        N  0.94009987  0.83714385  0.92015527    -0.38700
N621        N  0.88306268  0.76939289  0.05445731    -0.38100
N622        N  0.89374440  0.87998378  0.92006905    -0.38100
C623        C  0.01107386  0.68268865  0.26968967    -0.04800
C624        C  0.99542541  0.68348212  0.30296975    -0.01900
C625        C  0.98904122  0.66367561  0.32489935     0.03100
C626        C  0.00039142  0.64366188  0.31778043    -0.04800
C627        C  0.01967983  0.64458338  0.29254959    -0.01900
C628        C  0.02502904  0.66391065  0.26867041     0.03100
C629        C  0.98768707  0.70458335  0.31820266     0.37700
C630        C  0.03397190  0.62551684  0.29045979     0.37700
C631        C  0.04432863  0.66381585  0.24126645     0.36100
C632        C  0.96994484  0.66387130  0.35265246     0.36100
N633        N  0.05974485  0.66369468  0.21954513    -0.38700
N634        N  0.95457359  0.66418777  0.37447256    -0.38700
N635        N  0.04538527  0.61034706  0.28860419    -0.38100
N636        N  0.98169038  0.72135246  0.33126925    -0.38100
C637        C  0.98063896  0.74784787  0.17657687    -0.04800
C638        C  0.95814752  0.74451192  0.16739029    -0.01900
C639        C  0.94858081  0.75661916  0.13338064     0.03100
C640        C  0.96244052  0.76927970  0.10481942    -0.04800
C641        C  0.98480347  0.77217460  0.11689104    -0.01900
C642        C  0.99124500  0.76599615  0.15704719     0.03100
C643        C  0.94533454  0.72790880  0.19100209     0.37700
C644        C  0.00290441  0.77327768  0.08749859     0.37700
C645        C  0.01006149  0.77688876  0.17577767     0.36100
C646        C  0.92546541  0.75301553  0.12512067     0.36100
N647        N  0.02427644  0.78713267  0.19042248    -0.38700
N648        N  0.90691201  0.74946790  0.12001906    -0.38700
N649        N  0.01840329  0.77200834  0.06633227    -0.38100
N650        N  0.93507567  0.71462566  0.20980745    -0.38100
C651        C  0.01686930  0.64844452  0.87685698    -0.04800
C652        C  0.00508804  0.62876828  0.89049933    -0.01900
C653        C  0.00437276  0.60969585  0.86504149     0.03100
C654        C  0.01249498  0.61084185  0.82352542    -0.04800
C655        C  0.02126930  0.63114429  0.80749241    -0.01900
C656        C  0.02310838  0.64991435  0.83352433     0.03100
C657        C  0.99064026  0.62872928  0.92706442     0.37700
C658        C  0.02830862  0.63277923  0.76380227     0.37700
C659        C  0.02974674  0.67108464  0.81411353     0.36100
C660        C  0.99390350  0.58918914  0.88078342     0.36100
N661        N  0.03501437  0.68787735  0.79831334    -0.38700
N662        N  0.98563929  0.57282506  0.89334662    -0.38700
N663        N  0.03383181  0.63409580  0.72895719    -0.38100
N664        N  0.97876748  0.62832149  0.95577999    -0.38100
C665        C  0.01692849  0.68457936  0.02441244    -0.04800
C666        C  0.02458748  0.66772050  0.05247261    -0.01900
C667        C  0.02003600  0.66903573  0.09644154     0.03100
C668        C  0.00697156  0.68638508  0.11191707    -0.04800
C669        C  0.99565296  0.69899669  0.08310288    -0.01900
C670        C  0.00330451  0.70096508  0.04210617     0.03100
C671        C  0.03879046  0.65033617  0.03770578     0.37700
C672        C  0.97403910  0.70668217  0.09379959     0.37700
C673        C  0.00107685  0.72250380  0.02345734     0.36100
C674        C  0.02792695  0.65216088  0.12508374     0.36100
N675        N  0.00101165  0.74010106  0.00862140    -0.38700
N676        N  0.03407074  0.63844088  0.14765285    -0.38700
N677        N  0.95595727  0.71098781  0.10098090    -0.38100
N678        N  0.05007476  0.63623544  0.02647482    -0.38100
C679        C  0.95734954  0.75345702  0.96050273    -0.04800
C680        C  0.96848369  0.75683109  0.92190645    -0.01900
C681        C  0.98196429  0.73994084  0.90567101     0.03100
C682        C  0.98321453  0.71931132  0.92701590    -0.04800
C683        C  0.96703296  0.71413640  0.95832005    -0.01900
C684        C  0.95442163  0.73144768  0.97571405     0.03100
C685        C  0.96382345  0.77635495  0.89689158     0.37700
C686        C  0.96464421  0.69164195  0.97501910     0.37700
C687        C  0.93839803  0.72685364  0.00886569     0.36100
C688        C  0.99326686  0.74320398  0.86585302     0.36100
N689        N  0.92508360  0.72335442  0.03453494    -0.38700
N690        N  0.00148853  0.74583541  0.83319560    -0.38700
N691        N  0.96264717  0.67376066  0.98877083    -0.38100
N692        N  0.95905511  0.79119848  0.87561489    -0.38100
C693        C  0.23266120  0.00684490  0.14133724    -0.04800
C694        C  0.23291928  0.03064593  0.13758605    -0.01900
C695        C  0.21826383  0.04096486  0.10822547     0.03100
C696        C  0.20659930  0.02713103  0.07943792    -0.04800
C697        C  0.21111390  0.00435646  0.08171043    -0.01900
C698        C  0.21506033  0.99609848  0.12178070     0.03100
C699        C  0.24711510  0.04419547  0.16332663     0.37700
C700        C  0.22665165  0.99732463  0.05039465     0.37700
C701        C  0.19577471  0.99341900  0.14832793     0.36100
C702        C  0.21748289  0.06495147  0.10415326     0.36100
N703        N  0.18044060  0.99213315  0.17022062    -0.38700
N704        N  0.21694528  0.08414982  0.10052180    -0.38700
N705        N  0.23925011  0.99210086  0.02512333    -0.38100
N706        N  0.25798395  0.05554518  0.18404816    -0.38100
C707        C  0.29020455  0.98213697  0.97757713    -0.04800
C708        C  0.29836753  0.96297245  0.99762809    -0.01900
C709        C  0.29721272  0.96109678  0.04182873     0.03100
C710        C  0.28797289  0.97840966  0.06520069    -0.04800
C711        C  0.28551433  0.99933545  0.04568424    -0.01900
C712        C  0.28743546  0.00128056  0.00182081     0.03100
C713        C  0.31081937  0.94708406  0.97387712     0.37700
C714        C  0.28147311  0.01899276  0.07029745     0.37700
C715        C  0.29137295  0.02304207  0.98335961     0.36100
C716        C  0.30733632  0.94261566  0.06316837     0.36100
N717        N  0.29642919  0.04079285  0.97196581    -0.38700
N718        N  0.31646084  0.92827527  0.07957317    -0.38700
N719        N  0.27854576  0.03516237  0.08871482    -0.38100
N720        N  0.32202813  0.93491166  0.95613402    -0.38100
C721        C  0.24066892  0.01990474  0.89257237    -0.04800
C722        C  0.21921857  0.01566778  0.87905162    -0.01900
C723        C  0.20123990  0.02395194  0.90202888     0.03100
C724        C  0.20513901  0.03895320  0.93509936    -0.04800
C725        C  0.22666349  0.04768512  0.94044788    -0.01900
C726        C  0.24434196  0.03873041  0.91746401     0.03100
C727        C  0.21651147  0.00730674  0.83717823     0.37700
C728        C  0.23077077  0.06485167  0.97111328     0.37700
C729        C  0.26413604  0.05200575  0.91041049     0.36100
C730        C  0.17919434  0.01560036  0.89398477     0.36100
N731        N  0.27915465  0.06369422  0.90317990    -0.38700
N732        N  0.16161311  0.00865849  0.88791243    -0.38700
N733        N  0.23400113  0.07849046  0.99577825    -0.38100
N734        N  0.21504612  0.00189830  0.80257952    -0.38100
C735        C  0.15793476  0.94204677  0.02703177    -0.04800
C736        C  0.16993581  0.95747744  0.05011911    -0.01900
C737        C  0.17754719  0.97540484  0.02581846     0.03100
C738        C  0.16107797  0.98779846  0.00705566    -0.04800
C739        C  0.14248581  0.97519005  0.99240087    -0.01900
C740        C  0.14204895  0.95133702  0.99932814     0.03100
C741        C  0.15907427  0.96346686  0.08871255     0.37700
C742        C  0.12584556  0.98576074  0.96755021     0.37700
C743        C  0.12598587  0.93723446  0.97890751     0.36100
C744        C  0.19553927  0.97071915  0.99773400     0.36100
N745        N  0.11297508  0.92612262  0.96247698    -0.38700
N746        N  0.20991505  0.96749442  0.97475080    -0.38700
N747        N  0.11253146  0.99424850  0.94761454    -0.38100
N748        N  0.14937604  0.96847364  0.11848687    -0.38100
C749        C  0.24131588  0.93299246  0.14780821    -0.04800
C750        C  0.21861135  0.93534931  0.15548819    -0.01900
C751        C  0.20308574  0.92301760  0.13178627     0.03100
C752        C  0.21045358  0.90812681  0.10101569    -0.04800
C753        C  0.23262182  0.90174595  0.10191852    -0.01900
C754        C  0.24816690  0.91442085  0.12484874     0.03100
C755        C  0.21172413  0.94886717  0.19030314     0.37700
C756        C  0.23874284  0.88096754  0.08304306     0.37700
C757        C  0.27069891  0.90740308  0.12769088     0.36100
C758        C  0.17983132  0.92369880  0.14173822     0.36100
N759        N  0.28841289  0.90101201  0.13129145    -0.38700
N760        N  0.16128356  0.92343762  0.15056541    -0.38700
N761        N  0.24332077  0.86373955  0.07003444    -0.38100
N762        N  0.20666952  0.95916260  0.21919927    -0.38100
C763        C  0.24096028  0.94142620  0.90571331    -0.04800
C764        C  0.24966938  0.92280110  0.92686107    -0.01900
C765        C  0.23570839  0.90818887  0.95115531     0.03100
C766        C  0.21284749  0.91176990  0.95352060    -0.04800
C767        C  0.20392836  0.92692582  0.92449868    -0.01900
C768        C  0.21792862  0.94136136  0.90007397     0.03100
C769        C  0.27232700  0.91703804  0.91922486     0.37700
C770        C  0.18031712  0.92780123  0.91941019     0.37700
C771        C  0.20837444  0.95404601  0.86653099     0.36100
C772        C  0.24466835  0.88858165  0.97068532     0.36100
N773        N  0.19907430  0.96217207  0.83911122    -0.38700
N774        N  0.25229078  0.87258392  0.98426610    -0.38700
N775        N  0.16159844  0.92880178  0.91376660    -0.38100
N776        N  0.28997294  0.91139654  0.91135577    -0.38100
C777        C  0.04080399  0.81095834  0.01386518    -0.04800
C778        C  0.02982809  0.81148928  0.97518820    -0.01900
C779        C  0.00684641  0.81429071  0.97432093     0.03100
C780        C  0.99476314  0.81536791  0.01199595    -0.04800
C781        C  0.00615411  0.82024362  0.04906879    -0.01900
C782        C  0.02933988  0.81813859  0.05002716     0.03100
C783        C  0.04202838  0.81066797  0.93612903     0.37700
C784        C  0.99385330  0.82573408  0.08665966     0.37700
C785        C  0.04089906  0.82149503  0.08888663     0.36100
C786        C  0.99611926  0.81890818  0.93508866     0.36100
N787        N  0.04984999  0.82448022  0.12017524    -0.38700
N788        N  0.98851808  0.82403419  0.90342576    -0.38700
N789        N  0.98396998  0.83008625  0.11662700    -0.38100
N790        N  0.05080627  0.81101778  0.90375999    -0.38100
C791        C  0.07359659  0.76098903  0.10174164    -0.04800
C792        C  0.06656595  0.73857332  0.09510958    -0.01900
C793        C  0.06181280  0.72416350  0.12887250     0.03100
C794        C  0.05557349  0.73283223  0.16726046    -0.04800
C795        C  0.06336893  0.75441491  0.17663841    -0.01900
C796        C  0.07357779  0.76811858  0.14451303     0.03100
C797        C  0.05887431  0.73071137  0.05573988     0.37700
C798        C  0.06155446  0.76193204  0.21947339     0.37700
C799        C  0.08244837  0.78975276  0.15574091     0.36100
C800        C  0.06399119  0.70036433  0.12439153     0.36100
N801        N  0.08978980  0.80687387  0.16537749    -0.38700
N802        N  0.06737160  0.68159169  0.12074907    -0.38700
N803        N  0.06004606  0.76787814  0.25376847    -0.38100
N804        N  0.05062251  0.72365218  0.02627307    -0.38100
C805        C  0.06345087  0.71608996  0.92366033    -0.04800
C806        C  0.06495293  0.73663632  0.90176835    -0.01900
C807        C  0.07667502  0.75478711  0.91940872     0.03100
C808        C  0.08521355  0.75264076  0.95995001    -0.04800
C809        C  0.08934272  0.73095049  0.97494972    -0.01900
C810        C  0.07826762  0.71247380  0.95673903     0.03100
C811        C  0.05532564  0.73871815  0.86075618     0.37700
C812        C  0.10362899  0.72790475  0.01053977     0.37700
C813        C  0.08028159  0.69034236  0.97468352     0.36100
C814        C  0.08277788  0.77421464  0.89433682     0.36100
N815        N  0.08205629  0.67266095  0.98896274    -0.38700
N816        N  0.08877980  0.78918712  0.87364604    -0.38700
N817        N  0.11496850  0.72548279  0.03907190    -0.38100
N818        N  0.04835179  0.74039003  0.82729782    -0.38100
C819        C  0.12370672  0.82074592  0.02021094    -0.04800
C820        C  0.12424850  0.83733169  0.98782311    -0.01900
C821        C  0.14005159  0.85499429  0.98787812     0.03100
C822        C  0.15613498  0.85645524  0.01976754    -0.04800
C823        C  0.15906397  0.83673407  0.04446221    -0.01900
C824        C  0.14302029  0.81903381  0.04445417     0.03100
C825        C  0.10906049  0.83598744  0.95300799     0.37700
C826        C  0.17969128  0.83285027  0.06541147     0.37700
C827        C  0.14823927  0.79790655  0.06413060     0.36100
C828        C  0.14002087  0.87120000  0.95367139     0.36100
N829        N  0.15272848  0.78097707  0.07922653    -0.38700
N830        N  0.13980149  0.88374881  0.92583613    -0.38700
N831        N  0.19605868  0.82933850  0.08225775    -0.38100
N832        N  0.09701523  0.83508944  0.92521018    -0.38100
C833        C  0.67945897  0.94563781  0.75320393    -0.04800
C834        C  0.69572944  0.96267851  0.75380655    -0.01900
C835        C  0.71483755  0.96035628  0.77859800     0.03100
C836        C  0.71709434  0.94136707  0.80550524    -0.04800
C837        C  0.70152283  0.92330555  0.80059245    -0.01900
C838        C  0.68299913  0.92553203  0.77484817     0.03100
C839        C  0.69292388  0.98245578  0.72787461     0.37700
C840        C  0.70380115  0.90229927  0.82315356     0.37700
C841        C  0.66718925  0.90710536  0.77134634     0.36100
C842        C  0.73239383  0.97678707  0.77277063     0.36100
N843        N  0.65468066  0.89239472  0.76836576    -0.38700
N844        N  0.74605325  0.99021851  0.76650610    -0.38700
N845        N  0.70520959  0.88553142  0.84113676    -0.38100
N846        N  0.69057732  0.99812808  0.70699931    -0.38100
C847        C  0.67301144  0.93084250  0.26231192    -0.04800
C848        C  0.67105262  0.91894318  0.22474657    -0.01900
C849        C  0.68929206  0.91744185  0.19737146     0.03100
C850        C  0.70882848  0.93016753  0.20481723    -0.04800
C851        C  0.71190343  0.93824508  0.24609198    -0.01900
C852        C  0.69380785  0.93926418  0.27421651     0.03100
C853        C  0.65026130  0.90807419  0.21432389     0.37700
C854        C  0.73377820  0.94398739  0.26081161     0.37700
C855        C  0.69641155  0.94960957  0.31477861     0.36100
C856        C  0.68831318  0.90120840  0.16412533     0.36100
N857        N  0.69846345  0.95794167  0.34708398    -0.38700
N858        N  0.68694743  0.88796417  0.13817762    -0.38700
N859        N  0.75124574  0.94844554  0.27265774    -0.38100
N860        N  0.63365455  0.89952917  0.20592417    -0.38100
C861        C  0.34159900  0.98646991  0.76359725    -0.04800
C862        C  0.33054279  0.96581211  0.76931558    -0.01900
C863        C  0.31310382  0.96326657  0.79904867     0.03100
C864        C  0.30575578  0.98192179  0.82255853    -0.04800
C865        C  0.31836735  0.00231630  0.81807648    -0.01900
C866        C  0.33534623  0.00474553  0.78772973     0.03100
C867        C  0.33750464  0.94691102  0.74473609     0.37700
C868        C  0.31569914  0.02047461  0.84730137     0.37700
C869        C  0.34729413  0.02593011  0.78300901     0.36100
C870        C  0.30533299  0.94072229  0.80798306     0.36100
N871        N  0.35676056  0.04280190  0.77915599    -0.38700
N872        N  0.29986552  0.92234686  0.81411687    -0.38700
N873        N  0.31421947  0.03496062  0.87070591    -0.38100
N874        N  0.34310843  0.93191011  0.72509930    -0.38100
C875        C  0.34257699  0.98970630  0.26513798    -0.04800
C876        C  0.33486777  0.96772563  0.25908989    -0.01900
C877        C  0.31590902  0.96340336  0.23479645     0.03100
C878        C  0.30354939  0.98131295  0.21742068    -0.04800
C879        C  0.31291010  0.00331057  0.22124489    -0.01900
C880        C  0.33140950  0.00746989  0.24653859     0.03100
C881        C  0.34690770  0.94936254  0.27727250     0.37700
C882        C  0.30605441  0.02155038  0.19449486     0.37700
C883        C  0.34009988  0.03012832  0.25047461     0.36100
C884        C  0.31138585  0.94035593  0.22417089     0.36100
N885        N  0.34699978  0.04816290  0.25354087    -0.38700
N886        N  0.30842466  0.92177251  0.21613762    -0.38700
N887        N  0.30154533  0.03634251  0.17287546    -0.38100
N888        N  0.35660566  0.93480753  0.29169695    -0.38100
loop_ 
_geom_bond_atom_site_label_1 
_geom_bond_atom_site_label_2 
_geom_bond_distance 
_geom_bond_site_symmetry_2 
_ccdc_geom_bond_type 
N1            N2   1.322   1_565  A
N1            C5   1.345       .  A
N1           Cu9   2.078       .  S
N2            C3   1.343       .  A
N2           Cu8   2.066       .  S
C3            C4   1.380   1_545  A
C3            H6   1.082       .  S
C4            C5   1.383       .  A
C4           C52   1.462       .  S
C5            H7   1.081       .  S
Cu8          N11   2.066       .  S
Cu9          N19   2.079       .  S
Cu10         N12   2.065       .  S
Cu10         N18   2.065       .  S
N11          N12   1.321       .  A
N11          C15   1.344       .  A
N12          C13   1.343       .  A
C13          C14   1.383       .  A
C13          H16   1.081       .  S
C14          C15   1.383       .  A
C14          C38   1.470       .  S
C15          H17   1.081       .  S
N18          N19   1.322   1_545  A
N18          C22   1.343       .  A
N19          C20   1.345       .  A
C20          C21   1.385       .  A
C20          H23   1.082       .  S
C21          C22   1.381   1_565  A
C21         C875   1.487       .  S
C22          H24   1.083       .  S
N25          N26   1.322       .  A
N25          C29   1.346       .  A
N25         Cu33   2.079       .  S
N26          C27   1.344       .  A
N26         Cu32   2.074   1_565  S
C27          C28   1.382       .  A
C27          H30   1.083   1_565  S
C28          C29   1.384       .  A
C28          C76   1.467       .  S
C29          H31   1.083       .  S
Cu32         N35   2.075       .  S
Cu33         N43   2.078       .  S
Cu34         N36   2.061       .  S
Cu34         N42   2.062       .  S
N35          N36   1.321       .  A
N35          C39   1.345       .  A
N36          C37   1.343       .  A
C37          C38   1.382       .  A
C37          H40   1.081       .  S
C38          C39   1.385       .  A
C39          H41   1.081       .  S
N42          N43   1.322   1_545  A
N42          C46   1.344       .  A
N43          C44   1.344       .  A
C44          C45   1.383       .  A
C44          H47   1.081       .  S
C45          C46   1.381   1_565  A
C45         C861   1.482       .  S
C46          H48   1.082       .  S
N49          N50   1.323       .  A
N49          C53   1.346       .  A
N49         Cu57   2.073       .  S
N50          C51   1.343       .  A
N50         Cu56   2.070       .  S
C51          C52   1.380       .  A
C51          H54   1.082       .  S
C52          C53   1.381       .  A
C53          H55   1.081       .  S
Cu56         N59   2.070       .  S
Cu57         N67   2.073       .  S
Cu58         N60   2.061       .  S
Cu58         N66   2.062       .  S
N59          N60   1.321       .  A
N59          C63   1.346       .  A
N60          C61   1.340       .  A
C61          C62   1.382       .  A
C61          H64   1.081       .  S
C62          C63   1.385       .  A
C62          C86   1.469       .  S
C63          H65   1.081       .  S
N66          N67   1.322       .  A
N66          C70   1.344       .  A
N67          C68   1.344       .  A
C68          C69   1.382       .  A
C68          H71   1.082       .  S
C69          C70   1.380       .  A
C69         C847   1.477       .  S
C70          H72   1.082       .  S
N73          N74   1.324       .  A
N73          C77   1.349       .  A
N73         Cu81   2.096       .  S
N74          C75   1.342       .  A
N74         Cu80   2.065       .  S
C75          C76   1.378       .  A
C75          H78   1.082       .  S
C76          C77   1.386       .  A
C77          H79   1.082       .  S
Cu80         N83   2.066       .  S
Cu81         N91   2.097       .  S
Cu82         N84   2.056       .  S
Cu82         N90   2.057       .  S
N83          N84   1.319       .  A
N83          C87   1.346       .  A
N84          C85   1.340       .  A
C85          C86   1.382       .  A
C85          H88   1.081       .  S
C86          C87   1.386       .  A
C87          H89   1.081       .  S
N90          N91   1.322       .  A
N90          C94   1.342       .  A
N91          C92   1.349       .  A
C92          C93   1.389       .  A
C92          H95   1.081       .  S
C93          C94   1.380       .  A
C93         C833   1.486       .  S
C94          H96   1.081       .  S
C97          C98   1.544       .  S
C97         C103   1.540   1_554  S
C97         C101   1.564       .  S
C97         C819   1.560       .  S
C98         H105   1.086       .  S
C98          C99   1.354       .  D
C99         C100   1.542       .  S
C99         C777   1.497       .  S
C100        C104   1.551   1_554  S
C100        C102   1.555       .  S
C100        H106   1.102       .  S
C101        H107   1.079       .  S
C101        C102   1.384       .  D
C102        C791   1.534       .  S
C103        H108   1.086       .  S
C103        C104   1.359       .  D
C104        C808   1.501       .  S
C109        C110   1.556   1_554  S
C109        C115   1.557       .  S
C109        C113   1.559       .  S
C109        C822   1.565       .  S
C110        H117   1.086       .  S
C110        C111   1.369       .  D
C111        C112   1.533   1_556  S
C111        C766   1.508       .  S
C112        C116   1.548       .  S
C112        C114   1.532       .  S
C112        H118   1.105       .  S
C113        H119   1.080       .  S
C113        C114   1.362       .  D
C114        C752   1.501       .  S
C115        H120   1.085       .  S
C115        C116   1.366       .  D
C116        C735   1.498       .  S
C121        C122   1.540       .  S
C121        C127   1.551   1_565  S
C121        C125   1.563       .  S
C121        C864   1.558       .  S
C122        H129   1.087       .  S
C122        C123   1.354       .  D
C123        C124   1.544       .  S
C123        C707   1.492       .  S
C124        C128   1.549   1_565  S
C124        C126   1.551       .  S
C124        H130   1.105       .  S
C125        H131   1.077       .  S
C125        C126   1.370       .  D
C126        C763   1.518       .  S
C127        H132   1.086       .  S
C127        C128   1.360       .  D
C128        C721   1.498       .  S
C133        C134   1.565       .  S
C133        C139   1.535       .  S
C133        C137   1.563       .  S
C133        C878   1.557       .  S
C134        H141   1.084   1_565  S
C134        C135   1.372       .  D
C135        C136   1.547       .  S
C135        C693   1.507   1_565  S
C136        C140   1.528       .  S
C136        C138   1.528       .  S
C136        H142   1.104       .  S
C137        H143   1.082       .  S
C137        C138   1.369       .  D
C138        C749   1.498       .  S
C139        H144   1.087       .  S
C139        C140   1.348       .  D
C140        C710   1.479       .  S
C145        C146   1.540       .  S
C145        C151   1.558       .  S
C145        C149   1.551       .  S
C145        C651   1.549       .  S
C146        H153   1.086   1_455  S
C146        C147   1.357       .  D
C147        C148   1.544       .  S
C147        C682   1.503   1_455  S
C148        C152   1.553       .  S
C148        C150   1.532       .  S
C148        H154   1.093       .  S
C149        H155   1.085       .  S
C149        C150   1.358       .  D
C150        C805   1.498       .  S
C151        H156   1.077       .  S
C151        C152   1.375       .  D
C152        C665   1.526   1_556  S
C157        C158   1.555       .  S
C157        C163   1.550       .  S
C157        C161   1.564   1_455  S
C157        C623   1.550       .  S
C158        H165   1.085       .  S
C158        C159   1.364       .  D
C159        C160   1.536       .  S
C159        C794   1.499       .  S
C160        C164   1.541       .  S
C160        C162   1.541   1_455  S
C160        H166   1.111       .  S
C161        H167   1.077       .  S
C161        C162   1.368       .  D
C162        C637   1.504       .  S
C163        H168   1.086       .  S
C163        C164   1.353       .  D
C164        C668   1.497       .  S
C169        C170   1.545       .  S
C169        C175   1.556       .  S
C169        C173   1.538   1_554  S
C169        C609   1.547       .  S
C170        H177   1.085       .  S
C170        C171   1.357       .  D
C171        C172   1.549       .  S
C171        C584   1.486       .  S
C172        C176   1.553       .  S
C172        C174   1.548   1_554  S
C172        H178   1.109       .  S
C173        H179   1.086       .  S
C173        C174   1.359       .  D
C174        C598   1.501       .  S
C175        H180   1.082       .  S
C175        C176   1.373       .  D
C176        C567   1.524       .  S
C181        C182   1.552       .  S
C181        C187   1.564       .  S
C181        C185   1.541   1_554  S
C181        C612   1.545       .  S
C182        H189   1.085       .  S
C182        C183   1.354       .  D
C183        C184   1.532       .  S
C183        C780   1.492       .  S
C184        C188   1.547       .  S
C184        C186   1.538   1_554  S
C184        H190   1.074       .  S
C185        H191   1.086       .  S
C185        C186   1.356       .  D
C186        C679   1.498       .  S
C187        H192   1.084       .  S
C187        C188   1.382       .  D
C188        C640   1.531       .  S
C193        C194   1.543       .  S
C193        C199   1.549       .  S
C193        C197   1.570       .  S
C193        C836   1.561       .  S
C194        H201   1.087       .  S
C194        C195   1.352       .  D
C195        C196   1.534       .  S
C195        C542   1.490       .  S
C196        C200   1.530       .  S
C196        C198   1.547       .  S
C196        H202   1.095       .  S
C197        H203   1.076       .  S
C197        C198   1.386       .  D
C198        C553   1.530       .  S
C199        H204   1.086       .  S
C199        C200   1.358       .  D
C200        C595   1.499       .  S
C205        C206   1.547       .  S
C205        C211   1.548       .  S
C205        C209   1.547       .  S
C205        C850   1.545       .  S
C206        H213   1.084       .  S
C206        C207   1.375       .  D
C207        C208   1.546       .  S
C207        C581   1.517       .  S
C208        C212   1.540       .  S
C208        C210   1.550       .  S
C208        H214   1.101       .  S
C209        H215   1.084       .  S
C209        C210   1.357       .  D
C210        C528   1.496       .  S
C211        H216   1.084       .  S
C211        C212   1.355       .  D
C212        C539   1.493       .  S
C217        C218   1.546       .  S
C217        C223   1.550   1_554  S
C217        C221   1.563       .  S
C217        C511   1.555       .  S
C218        H225   1.086       .  S
C218        C219   1.363       .  D
C219        C220   1.534       .  S
C219        C486   1.506       .  S
C220        C224   1.548   1_554  S
C220        C222   1.554       .  S
C220        H226   1.091       .  S
C221        H227   1.082       .  S
C221        C222   1.376       .  D
C222        C472   1.523       .  S
C223        H228   1.086       .  S
C223        C224   1.356       .  D
C224        C497   1.511       .  S
C229        C230   1.549       .  S
C229        C235   1.559       .  S
C229        C233   1.556   1_554  S
C229        C514   1.548       .  S
C230        H237   1.085       .  S
C230        C231   1.365       .  D
C231        C232   1.538       .  S
C231        C696   1.507       .  S
C232        C236   1.540       .  S
C232        C234   1.512   1_554  S
C232        H238   1.090   1_554  S
C233        H239   1.084       .  S
C233        C234   1.362       .  D
C234        C724   1.484       .  S
C235        H240   1.083       .  S
C235        C236   1.366       .  D
C236        C738   1.501   1_545  S
C241        C242   1.568   1_554  S
C241        C247   1.553       .  S
C241        C245   1.544       .  S
C241        C455   1.552       .  S
C242        H249   1.076       .  S
C242        C243   1.376       .  D
C243        C244   1.550   1_556  S
C243        C556   1.524       .  S
C244        C248   1.540   1_545  S
C244        C246   1.538       .  S
C244        H250   1.101   1_545  S
C245        H251   1.086       .  S
C245        C246   1.354       .  D
C246        C525   1.496       .  S
C247        H252   1.086       .  S
C247        C248   1.357   1_545  D
C248        C570   1.495       .  S
C253        C254   1.537       .  S
C253        C259   1.554       .  S
C253        C257   1.555   1_554  S
C253        C458   1.554       .  S
C254        H261   1.086       .  S
C254        C255   1.358       .  D
C255        C256   1.549       .  S
C255        C427   1.497       .  S
C256        C260   1.545       .  S
C256        C258   1.556   1_554  S
C256        H262   1.110       .  S
C257        H263   1.078       .  S
C257        C258   1.374       .  D
C258        C444   1.529       .  S
C259        H264   1.086       .  S
C259        C260   1.360       .  D
C260        C469   1.494       .  S
C265        C266   1.559       .  S
C265        C271   1.557       .  S
C265        C269   1.556   1_455  S
C265        C399   1.547       .  S
C266        H273   1.078       .  S
C266        C267   1.361       .  D
C267        C268   1.546   1_455  S
C267        C500   1.516       .  S
C268        C272   1.538   1_655  S
C268        C270   1.531       .  S
C268        H274   1.083       .  S
C269        H275   1.085       .  S
C269        C270   1.365       .  D
C270        C441   1.504       .  S
C271        H276   1.085       .  S
C271        C272   1.361       .  D
C272        C413   1.505       .  S
C277        C278   1.556       .  S
C277        C283   1.545   1_655  S
C277        C281   1.550       .  S
C277        C385   1.561       .  S
C278        H285   1.077       .  S
C278        C279   1.374       .  D
C279        C280   1.547       .  S
C279        C416   1.517       .  S
C280        C284   1.545   1_655  S
C280        C282   1.532       .  S
C280        H286   1.098       .  S
C281        H287   1.085       .  S
C281        C282   1.360       .  D
C282        C430   1.494       .  S
C283        H288   1.086       .  S
C283        C284   1.362       .  D
C284        C483   1.513       .  S
N289        N290   1.323       .  A
N289        C293   1.350   1_455  A
N289       Cu297   2.092       .  S
N290        C291   1.342       .  A
N290       Cu296   2.068       .  S
C291        C292   1.379   1_455  A
C291        H294   1.081       .  S
C292        C293   1.386       .  A
C292        C340   1.467       .  S
C293        H295   1.080       .  S
Cu296       N299   2.067       .  S
Cu297       N307   2.092       .  S
Cu298       N300   2.063       .  S
Cu298       N306   2.065       .  S
N299        N300   1.320       .  A
N299        C303   1.345       .  A
N300        C301   1.343       .  A
C301        C302   1.382       .  A
C301        H304   1.080       .  S
C302        C303   1.383       .  A
C302        C326   1.468       .  S
C303        H305   1.081       .  S
N306        N307   1.323       .  A
N306        C310   1.343       .  A
N307        C308   1.348       .  A
C308        C309   1.388       .  A
C308        H311   1.084   1_455  S
C309        C310   1.382       .  A
C309        C388   1.491       .  S
C310        H312   1.083       .  S
N313        N314   1.322       .  A
N313        C317   1.345       .  A
N313       Cu321   2.077       .  S
N314        C315   1.343       .  A
N314       Cu320   2.066       .  S
C315        C316   1.380       .  A
C315        H318   1.083       .  S
C316        C317   1.383       .  A
C316        C364   1.462       .  S
C317        H319   1.082       .  S
Cu320       N323   2.067       .  S
Cu321       N331   2.077       .  S
Cu322       N324   2.059       .  S
Cu322       N330   2.059       .  S
N323        N324   1.320       .  A
N323        C327   1.345       .  A
N324        C325   1.343       .  A
C325        C326   1.382       .  A
C325        H328   1.080       .  S
C326        C327   1.383       .  A
C327        H329   1.081       .  S
N330        N331   1.321       .  A
N330        C334   1.342       .  A
N331        C332   1.344       .  A
C332        C333   1.387       .  A
C332        H335   1.083       .  S
C333        C334   1.383       .  A
C333        C402   1.490       .  S
C334        H336   1.081       .  S
N337        N338   1.322       .  A
N337        C341   1.348       .  A
N337       Cu345   2.087       .  S
N338        C339   1.343       .  A
N338       Cu344   2.070       .  S
C339        C340   1.382       .  A
C339        H342   1.081       .  S
C340        C341   1.386       .  A
C341        H343   1.080   1_655  S
Cu344       N347   2.071       .  S
Cu345       N355   2.087       .  S
Cu346       N348   2.065       .  S
Cu346       N354   2.065       .  S
N347        N348   1.322       .  A
N347        C351   1.346       .  A
N348        C349   1.342       .  A
C349        C350   1.382       .  A
C349        H352   1.080       .  S
C350        C351   1.384       .  A
C350        C374   1.469       .  S
C351        H353   1.081       .  S
N354        N355   1.321       .  A
N354        C358   1.346       .  A
N355        C356   1.344       .  A
C356        C357   1.389       .  A
C356        H359   1.082       .  S
C357        C358   1.386       .  A
C357        C626   1.495   1_655  S
C358        H360   1.081       .  S
N361        N362   1.323   1_455  A
N361        C365   1.346       .  A
N361       Cu369   2.073       .  S
N362        C363   1.342   1_655  A
N362       Cu368   2.070       .  S
C363        C364   1.380       .  A
C363        H366   1.082   1_455  S
C364        C365   1.381       .  A
C365        H367   1.081       .  S
Cu368       N371   2.070       .  S
Cu369       N379   2.073       .  S
Cu370       N372   2.062       .  S
Cu370       N378   2.063       .  S
N371        N372   1.321       .  A
N371        C375   1.346       .  A
N372        C373   1.342       .  A
C373        C374   1.382       .  A
C373        H376   1.079       .  S
C374        C375   1.384       .  A
C375        H377   1.081       .  S
N378        N379   1.322   1_655  A
N378        C382   1.342       .  A
N379        C380   1.346       .  A
C380        C381   1.383       .  A
C380        H383   1.082       .  S
C381        C382   1.380   1_455  A
C381        C654   1.481       .  S
C382        H384   1.082       .  S
C385        C386   1.430       .  A
C385        C390   1.433   1_655  A
C386        C387   1.413       .  A
C386        C391   1.452       .  S
C387        C388   1.408   1_655  A
C387        C394   1.453       .  S
C388        C389   1.407       .  A
C389        C390   1.416       .  A
C389        C392   1.454       .  S
C390        C393   1.448       .  S
C391        N398   1.158       .  T
C392        N397   1.157       .  T
C393        N395   1.157       .  T
C394        N396   1.157       .  T
C399        C400   1.421   1_455  A
C399        C404   1.419       .  A
C400        C401   1.410       .  A
C400        C405   1.450       .  S
C401        C402   1.411   1_655  A
C401        C408   1.452       .  S
C402        C403   1.415       .  A
C403        C404   1.410       .  A
C403        C406   1.451       .  S
C404        C407   1.449       .  S
C405        N412   1.157       .  T
C406        N411   1.158       .  T
C407        N409   1.158       .  T
C408        N410   1.157       .  T
C413        C414   1.390       .  A
C413        C418   1.414   1_455  A
C414        C415   1.386   1_556  A
C414        C419   1.432       .  S
C415        C416   1.411   1_455  A
C415        C422   1.439       .  S
C416        C417   1.428       .  A
C417        C418   1.428   1_554  A
C417        C420   1.448       .  S
C418        C421   1.447       .  S
C419        N426   1.152       .  T
C420        N425   1.157       .  T
C421        N423   1.157       .  T
C422        N424   1.157       .  T
C427        C428   1.408       .  A
C427        C432   1.410       .  A
C428        C429   1.411       .  A
C428        C433   1.442       .  S
C429        C430   1.402       .  A
C429        C436   1.444       .  S
C430        C431   1.410       .  A
C431        C432   1.418       .  A
C431        C434   1.446       .  S
C432        C435   1.449       .  S
C433        N440   1.155       .  T
C434        N439   1.157       .  T
C435        N437   1.157       .  T
C436        N438   1.157       .  T
C441        C442   1.393       .  A
C441        C446   1.405       .  A
C442        C443   1.400       .  A
C442        C447   1.442       .  S
C443        C444   1.417       .  A
C443        C450   1.434       .  S
C444        C445   1.435       .  A
C445        C446   1.430       .  A
C445        C448   1.447       .  S
C446        C449   1.446       .  S
C447        N454   1.156       .  T
C448        N453   1.158       .  T
C449        N451   1.157       .  T
C450        N452   1.153   1_556  T
C455        C456   1.424       .  A
C455        C460   1.421       .  A
C456        C457   1.408       .  A
C456        C461   1.455       .  S
C457        C458   1.419       .  A
C457        C464   1.452       .  S
C458        C459   1.424       .  A
C459        C460   1.423       .  A
C459        C462   1.450   1_554  S
C460        C463   1.449   1_554  S
C461        N468   1.157       .  T
C462        N467   1.158       .  T
C463        N465   1.158       .  T
C464        N466   1.156       .  T
C469        C470   1.412       .  A
C469        C474   1.385   1_554  A
C470        C471   1.430   1_655  A
C470        C475   1.445       .  S
C471        C472   1.426       .  A
C471        C478   1.443       .  S
C472        C473   1.408   1_554  A
C473        C474   1.384   1_455  A
C473        C476   1.412       .  S
C474        C477   1.442       .  S
C475        N482   1.157       .  T
C476        N481   1.146       .  T
C477        N479   1.155       .  T
C478        N480   1.156       .  T
C483        C484   1.420       .  A
C483        C488   1.413       .  A
C484        C485   1.419       .  A
C484        C489   1.447       .  S
C485        C486   1.406       .  A
C485        C492   1.445       .  S
C486        C487   1.410       .  A
C487        C488   1.418       .  A
C487        C490   1.446       .  S
C488        C491   1.443       .  S
C489        N496   1.156       .  T
C490        N495   1.156       .  T
C491        N493   1.156       .  T
C492        N494   1.157       .  T
C497        C498   1.411       .  A
C497        C502   1.408       .  A
C498        C499   1.421       .  A
C498        C503   1.448       .  S
C499        C500   1.413       .  A
C499        C506   1.444       .  S
C500        C501   1.416       .  A
C501        C502   1.423       .  A
C501        C504   1.449       .  S
C502        C505   1.446       .  S
C503        N510   1.157       .  T
C504        N509   1.157       .  T
C505        N507   1.157       .  T
C506        N508   1.156       .  T
C511        C512   1.424       .  A
C511        C516   1.420       .  A
C512        C513   1.414       .  A
C512        C517   1.452       .  S
C513        C514   1.417       .  A
C513        C520   1.451       .  S
C514        C515   1.420       .  A
C515        C516   1.418       .  A
C515        C518   1.454       .  S
C516        C519   1.446       .  S
C517        N524   1.157   1_554  T
C518        N523   1.158       .  T
C519        N521   1.156       .  T
C520        N522   1.158   1_554  T
C525        C526   1.409   1_545  A
C525        C530   1.408       .  A
C526        C527   1.415       .  A
C526        C531   1.445       .  S
C527        C528   1.407       .  A
C527        C534   1.449       .  S
C528        C529   1.407   1_565  A
C529        C530   1.418       .  A
C529        C532   1.446       .  S
C530        C533   1.448       .  S
C531        N538   1.156       .  T
C532        N537   1.157       .  T
C533        N535   1.157       .  T
C534        N536   1.157       .  T
C539        C540   1.407       .  A
C539        C544   1.411       .  A
C540        C541   1.415   1_554  A
C540        C545   1.445       .  S
C541        C542   1.417       .  A
C541        C548   1.449       .  S
C542        C543   1.402       .  A
C543        C544   1.407   1_556  A
C543        C546   1.445       .  S
C544        C547   1.442       .  S
C545        N552   1.156       .  T
C546        N551   1.155       .  T
C547        N549   1.155       .  T
C548        N550   1.157       .  T
C553        C554   1.418       .  A
C553        C558   1.432       .  A
C554        C555   1.382       .  A
C554        C559   1.442       .  S
C555        C556   1.390   1_565  A
C555        C562   1.431   1_556  S
C556        C557   1.421       .  A
C557        C558   1.439   1_545  A
C557        C560   1.447       .  S
C558        C561   1.447       .  S
C559        N566   1.157   1_556  T
C560        N565   1.158       .  T
C561        N563   1.157       .  T
C562        N564   1.152   1_565  T
C567        C568   1.432       .  A
C567        C572   1.416   1_554  A
C568        C569   1.429       .  A
C568        C573   1.447       .  S
C569        C570   1.409       .  A
C569        C576   1.445       .  S
C570        C571   1.385   1_554  A
C571        C572   1.393       .  A
C571        C574   1.445       .  S
C572        C575   1.424       .  S
C573        N580   1.158       .  T
C574        N579   1.156       .  T
C575        N577   1.150       .  T
C576        N578   1.157       .  T
C581        C582   1.431       .  A
C581        C586   1.420       .  A
C582        C583   1.426       .  A
C582        C587   1.445       .  S
C583        C584   1.406       .  A
C583        C590   1.445       .  S
C584        C585   1.381       .  A
C585        C586   1.385       .  A
C585        C588   1.443       .  S
C586        C589   1.425       .  S
C587        N594   1.158       .  T
C588        N593   1.156       .  T
C589        N591   1.151       .  T
C590        N592   1.157       .  T
C595        C596   1.403       .  A
C595        C600   1.409       .  A
C596        C597   1.413       .  A
C596        C601   1.442       .  S
C597        C598   1.409       .  A
C597        C604   1.445       .  S
C598        C599   1.417       .  A
C599        C600   1.421       .  A
C599        C602   1.448       .  S
C600        C603   1.449       .  S
C601        N608   1.157       .  T
C602        N607   1.157       .  T
C603        N605   1.157       .  T
C604        N606   1.156       .  T
C609        C610   1.418   1_554  A
C609        C614   1.425       .  A
C610        C611   1.409       .  A
C610        C615   1.451       .  S
C611        C612   1.421   1_556  A
C611        C618   1.453       .  S
C612        C613   1.416       .  A
C613        C614   1.417       .  A
C613        C616   1.448       .  S
C614        C617   1.452       .  S
C615        N622   1.156       .  T
C616        N621   1.156       .  T
C617        N619   1.158       .  T
C618        N620   1.157       .  T
C623        C624   1.417   1_455  A
C623        C628   1.425       .  A
C624        C625   1.415       .  A
C624        C629   1.447       .  S
C625        C626   1.417   1_655  A
C625        C632   1.450       .  S
C626        C627   1.412       .  A
C627        C628   1.409       .  A
C627        C630   1.452       .  S
C628        C631   1.453       .  S
C629        N636   1.158       .  T
C630        N635   1.157       .  T
C631        N633   1.157       .  T
C632        N634   1.157       .  T
C637        C638   1.411       .  A
C637        C642   1.389       .  A
C638        C639   1.433       .  A
C638        C643   1.448       .  S
C639        C640   1.431       .  A
C639        C646   1.444       .  S
C640        C641   1.424       .  A
C641        C642   1.391       .  A
C641        C644   1.435   1_655  S
C642        C645   1.444   1_655  S
C643        N650   1.157       .  T
C644        N649   1.155       .  T
C645        N647   1.156       .  T
C646        N648   1.156       .  T
C651        C652   1.427       .  A
C651        C656   1.429       .  A
C652        C653   1.411       .  A
C652        C657   1.450   1_455  S
C653        C654   1.407       .  A
C653        C660   1.453   1_455  S
C654        C655   1.406       .  A
C655        C656   1.410       .  A
C655        C658   1.453       .  S
C656        C659   1.453       .  S
C657        N664   1.158       .  T
C658        N663   1.157       .  T
C659        N661   1.158       .  T
C660        N662   1.157       .  T
C665        C666   1.431       .  A
C665        C670   1.416       .  A
C666        C667   1.428       .  A
C666        C671   1.447       .  S
C667        C668   1.412       .  A
C667        C674   1.448       .  S
C668        C669   1.382   1_455  A
C669        C670   1.384   1_655  A
C669        C672   1.439       .  S
C670        C673   1.425       .  S
C671        N678   1.157       .  T
C672        N677   1.154       .  T
C673        N675   1.151       .  T
C674        N676   1.157       .  T
C679        C680   1.406       .  A
C679        C684   1.408       .  A
C680        C681   1.415       .  A
C680        C685   1.444       .  S
C681        C682   1.409       .  A
C681        C688   1.444       .  S
C682        C683   1.418       .  A
C683        C684   1.418       .  A
C683        C686   1.448       .  S
C684        C687   1.447   1_556  S
C685        N692   1.157       .  T
C686        N691   1.157       .  T
C687        N689   1.157       .  T
C688        N690   1.156   1_655  T
C693        C694   1.431       .  A
C693        C698   1.394   1_545  A
C694        C695   1.443       .  A
C694        C699   1.443       .  S
C695        C696   1.429       .  A
C695        C702   1.445       .  S
C696        C697   1.400       .  A
C697        C698   1.390   1_545  A
C697        C700   1.438   1_545  S
C698        C701   1.441       .  S
C699        N706   1.157       .  T
C700        N705   1.155       .  T
C701        N703   1.157       .  T
C702        N704   1.157       .  T
C707        C708   1.411       .  A
C707        C712   1.404   1_566  A
C708        C709   1.413   1_556  A
C708        C713   1.445       .  S
C709        C710   1.408       .  A
C709        C716   1.446       .  S
C710        C711   1.406       .  A
C711        C712   1.405   1_565  A
C711        C714   1.448   1_565  S
C712        C715   1.439   1_554  S
C713        N720   1.157       .  T
C714        N719   1.156       .  T
C715        N717   1.155       .  T
C716        N718   1.156       .  T
C721        C722   1.396       .  A
C721        C726   1.404       .  A
C722        C723   1.410       .  A
C722        C727   1.442       .  S
C723        C724   1.414       .  A
C723        C730   1.446       .  S
C724        C725   1.411       .  A
C725        C726   1.411       .  A
C725        C728   1.449       .  S
C726        C729   1.441       .  S
C727        N734   1.157       .  T
C728        N733   1.157       .  T
C729        N731   1.157       .  T
C730        N732   1.157       .  T
C735        C736   1.390       .  A
C735        C740   1.433   1_554  A
C736        C737   1.385       .  A
C736        C741   1.442       .  S
C737        C738   1.395       .  A
C737        C744   1.438   1_554  S
C738        C739   1.432   1_554  A
C739        C740   1.445       .  A
C739        C742   1.444       .  S
C740        C743   1.444       .  S
C741        N748   1.157       .  T
C742        N747   1.157       .  T
C743        N745   1.157       .  T
C744        N746   1.154       .  T
C749        C750   1.408       .  A
C749        C754   1.408       .  A
C750        C751   1.417       .  A
C750        C755   1.445       .  S
C751        C752   1.410       .  A
C751        C758   1.445       .  S
C752        C753   1.408       .  A
C753        C754   1.416       .  A
C753        C756   1.445       .  S
C754        C757   1.444       .  S
C755        N762   1.157       .  T
C756        N761   1.157       .  T
C757        N759   1.156       .  T
C758        N760   1.157       .  T
C763        C764   1.414       .  A
C763        C768   1.412       .  A
C764        C765   1.421       .  A
C764        C769   1.444       .  S
C765        C766   1.410       .  A
C765        C772   1.444       .  S
C766        C767   1.410       .  A
C767        C768   1.419       .  A
C767        C770   1.447       .  S
C768        C771   1.440       .  S
C769        N776   1.156       .  T
C770        N775   1.156       .  T
C771        N773   1.155       .  T
C772        N774   1.156       .  T
C777        C778   1.409   1_554  A
C777        C782   1.415       .  A
C778        C779   1.410       .  A
C778        C783   1.442       .  S
C779        C780   1.402   1_456  A
C779        C786   1.444   1_455  S
C780        C781   1.408   1_655  A
C781        C782   1.417       .  A
C781        C784   1.449   1_455  S
C782        C785   1.446       .  S
C783        N790   1.155       .  T
C784        N789   1.157       .  T
C785        N787   1.156       .  T
C786        N788   1.156       .  T
C791        C792   1.421       .  A
C791        C796   1.434       .  A
C792        C793   1.395       .  A
C792        C797   1.427       .  S
C793        C794   1.387       .  A
C793        C800   1.445       .  S
C794        C795   1.406       .  A
C795        C796   1.431       .  A
C795        C798   1.447       .  S
C796        C799   1.445       .  S
C797        N804   1.151       .  T
C798        N803   1.157       .  T
C799        N801   1.157       .  T
C800        N802   1.156       .  T
C805        C806   1.409       .  A
C805        C810   1.413       .  A
C806        C807   1.414       .  A
C806        C811   1.444       .  S
C807        C808   1.404       .  A
C807        C814   1.444       .  S
C808        C809   1.409       .  A
C809        C810   1.418       .  A
C809        C812   1.449   1_556  S
C810        C813   1.447       .  S
C811        N818   1.156       .  T
C812        N817   1.157       .  T
C813        N815   1.157       .  T
C814        N816   1.157       .  T
C819        C820   1.424   1_554  A
C819        C824   1.418       .  A
C820        C821   1.414       .  A
C820        C825   1.454       .  S
C821        C822   1.421   1_556  A
C821        C828   1.452       .  S
C822        C823   1.428       .  A
C823        C824   1.425       .  A
C823        C826   1.449       .  S
C824        C827   1.450       .  S
C825        N832   1.157       .  T
C826        N831   1.158       .  T
C827        N829   1.158       .  T
C828        N830   1.157       .  T
C833        C834   1.407       .  A
C833        C838   1.404       .  A
C834        C835   1.421       .  A
C834        C839   1.452       .  S
C835        C836   1.427       .  A
C835        C842   1.445       .  S
C836        C837   1.434       .  A
C837        C838   1.408       .  A
C837        C840   1.453       .  S
C838        C841   1.455       .  S
C839        N846   1.157       .  T
C840        N845   1.157       .  T
C841        N843   1.157       .  T
C842        N844   1.158       .  T
C847        C848   1.407       .  A
C847        C852   1.408       .  A
C848        C849   1.406       .  A
C848        C853   1.453       .  S
C849        C850   1.421       .  A
C849        C856   1.449       .  S
C850        C851   1.421       .  A
C851        C852   1.412       .  A
C851        C854   1.450       .  S
C852        C855   1.450       .  S
C853        N860   1.157       .  T
C854        N859   1.157       .  T
C855        N857   1.157       .  T
C856        N858   1.157       .  T
C861        C862   1.405       .  A
C861        C866   1.403   1_565  A
C862        C863   1.417       .  A
C862        C867   1.454       .  S
C863        C864   1.431       .  A
C863        C870   1.446       .  S
C864        C865   1.434   1_565  A
C865        C866   1.409       .  A
C865        C868   1.453       .  S
C866        C869   1.455       .  S
C867        N874   1.157       .  T
C868        N873   1.157       .  T
C869        N871   1.157       .  T
C870        N872   1.158       .  T
C875        C876   1.406       .  A
C875        C880   1.404   1_565  A
C876        C877   1.417       .  A
C876        C881   1.454       .  S
C877        C878   1.433       .  A
C877        C884   1.449       .  S
C878        C879   1.433   1_565  A
C879        C880   1.411       .  A
C879        C882   1.450       .  S
C880        C883   1.455       .  S
C881        N888   1.157       .  T
C882        N887   1.156       .  T
C883        N885   1.157       .  T
C884        N886   1.158       .  T
