geometry optimzed in LAMMPS
_audit_creation_date              2020-11-30 
_audit_creation_method            'lammps2cif' 
_symmetry_space_group_name_H-M    'P1' 
_symmetry_Int_Tables_number       1 
_symmetry_cell_setting            triclinic 
loop_ 
_symmetry_equiv_pos_as_xyz 
  x,y,z 
_cell_length_a                    27.68473365 
_cell_length_b                    21.01726185869342 
_cell_length_c                    30.106920705782812 
_cell_angle_alpha                 89.45971758097664 
_cell_angle_beta                  86.17604013048887 
_cell_angle_gamma                 89.06986771144079 
loop_ 
_atom_site_label 
_atom_site_type_symbol 
_atom_site_fract_x 
_atom_site_fract_y 
_atom_site_fract_z 
_atom_site_charge 
C1          C  0.08231105  0.41254692  0.00306610    -0.03500
C2          C  0.45777763  0.53671399  0.00803637    -0.03500
O3          O  0.27850660  0.62263429  0.23053634    -0.81900
O4          O  0.27560293  0.33808317  0.21513717    -0.66600
O5          O  0.23652308  0.50871701  0.24403399    -1.13200
C6          C  0.35270254  0.48028849  0.35347623     1.05000
O7          O  0.26050970  0.32102673  0.28660689    -0.79800
O8          O  0.25716296  0.39761307  0.35640828    -0.67400
Ni9        Ni  0.23308414  0.57352340  0.20126828     1.34900
C10         C  0.22768914  0.44420836  0.36022370     0.83700
O11         O  0.21058314  0.42149468  0.18009813    -0.80300
O12         O  0.18880520  0.52472859  0.17026408    -0.90600
C13         C  0.26983028  0.29936942  0.24786244     0.83300
O14         O  0.28372395  0.54735496  0.15987478    -0.68800
O15         O  0.35190028  0.42143208  0.34308661    -0.88100
C16         C  0.31090546  0.49859972  0.15496281     0.84100
C17         C  0.18633411  0.46554356  0.16112321     1.05700
H18         H  0.33339438  0.44081560  0.25677171     0.37500
O19         O  0.30133329  0.43645682  0.27120687    -1.10800
O20         O  0.23017777  0.49232129  0.33405901    -0.67400
Ni21       Ni  0.28065332  0.51908401  0.28995678     1.26300
O22         O  0.30684120  0.45007103  0.18065991    -0.67600
O23         O  0.32622469  0.52355045  0.33621037    -0.79900
C24         C  0.26640636  0.64483304  0.26861398     0.83500
O25         O  0.26035299  0.60629743  0.30141002    -0.67100
Ni26       Ni  0.30675097  0.37172865  0.31383543     1.27400
Ni27       Ni  0.25656480  0.42572800  0.22588623     1.26100
H28         H  0.20421720  0.50523171  0.25794146     0.38000
C29         C  0.32415773  0.03084554  0.25325273    -0.03500
C30         C  0.20536539  0.91152589  0.25926940    -0.03500
O31         O  0.00442236  0.12700446  0.03180757    -0.81900
O32         O  0.51023743  0.84112326  0.04608473    -0.66600
O33         O  0.04911769  0.01269907  0.01882204    -1.13200
C34         C  0.43098270  0.97595529  0.41006485     1.05000
O35         O  0.53275511  0.82095507  0.47472895    -0.79800
O36         O  0.02845812  0.90059480  0.40627192    -0.67400
Ni37       Ni  0.05036405  0.07669284  0.06155195     1.34900
C38         C  0.05677640  0.94738009  0.40427551     0.83700
O39         O  0.07803907  0.92332543  0.08160481    -0.80300
O40         O  0.09512802  0.02691921  0.09292696    -0.90600
C41         C  0.51455923  0.80358801  0.01292210     0.83300
O42         O  0.49724682  0.04876446  0.10285487    -0.68800
O43         O  0.43394778  0.91720616  0.42111469    -0.88100
C44         C  0.47180552  0.99933355  0.10723077     0.84100
C45         C  0.10026110  0.96743612  0.10117475     1.05700
H46         H  0.45090334  0.94807801  0.00591838     0.37500
O47         O  0.48548921  0.93331417  0.49174060    -1.10800
O48         O  0.05315885  0.99282647  0.43213069    -0.67400
Ni49       Ni  0.99953333  0.01686473  0.47404612     1.26300
O50         O  0.47779398  0.95159105  0.08161143    -0.67600
O51         O  0.45613952  0.01979156  0.42645365    -0.79900
C52         C  0.01723296  0.14997538  0.99402102     0.83500
O53         O  0.01696946  0.10500977  0.46328760    -0.67100
Ni54       Ni  0.48291532  0.86960309  0.44882664     1.27400
Ni55       Ni  0.03118574  0.92875396  0.03635368     1.26100
H56         H  0.08155285  0.00992047  0.00495760     0.38000
C57         C  0.17480103  0.96891710  0.33285602    -0.14400
C58         C  0.16664215  0.92910733  0.29647430     0.07800
C59         C  0.12108956  0.90069875  0.29544016    -0.14400
C60         C  0.08561041  0.90975680  0.32950935    -0.14400
C61         C  0.09420869  0.94671161  0.36668725     0.07800
C62         C  0.13878421  0.97756554  0.36771425    -0.14400
H63         H  0.20935281  0.99143804  0.33539383     0.11800
H64         H  0.11331848  0.86940580  0.26854975     0.11800
H65         H  0.05145597  0.88599035  0.32712309     0.11800
H66         H  0.14639574  0.00623639  0.39603752     0.11800
C67         C  0.16911777  0.98625297  0.20376030    -0.14400
C68         C  0.18225928  0.92331019  0.21466520     0.07800
C69         C  0.16976884  0.87425392  0.18583860    -0.14400
C70         C  0.14480802  0.88815450  0.14775551    -0.14400
C71         C  0.13168890  0.95115354  0.13769155     0.07800
C72         C  0.14492438  0.99996307  0.16588521    -0.14400
H73         H  0.17676639  0.02518373  0.22544379     0.11800
H74         H  0.17704175  0.82482921  0.19341637     0.11800
H75         H  0.13456638  0.84950521  0.12697369     0.11800
H76         H  0.13486689  0.04915467  0.15987334     0.11800
C77         C  0.28166694  0.98894221  0.25371948    -0.14300
C78         C  0.24772586  0.95368333  0.25833739    -0.15800
C79         C  0.38261304  0.94259229  0.34800818    -0.14400
C80         C  0.39870909  0.99190680  0.37421556     0.07800
C81         C  0.38771298  0.05510529  0.36270534    -0.14400
C82         C  0.36199146  0.06863644  0.32510581    -0.14400
C83         C  0.34696909  0.01907819  0.29794361     0.07800
C84         C  0.35801875  0.95593614  0.31026215    -0.14400
H85         H  0.39099859  0.89324023  0.35532231     0.11800
H86         H  0.40022451  0.09411653  0.38194450     0.11800
H87         H  0.35639406  0.11804365  0.31629480     0.11800
H88         H  0.34851617  0.91649741  0.28980090     0.11800
C89         C  0.35527747  0.97396077  0.17973508    -0.14400
C90         C  0.36321833  0.01358000  0.21624099     0.07800
C91         C  0.40857131  0.04277808  0.21717234    -0.14400
C92         C  0.44367400  0.03549429  0.18249949    -0.14400
C93         C  0.43502189  0.99893098  0.14522083     0.07800
C94         C  0.39102826  0.96665480  0.14454450    -0.14400
H95         H  0.32100872  0.95068399  0.17729179     0.11800
H96         H  0.41625646  0.07390034  0.24416300     0.11800
H97         H  0.47752615  0.06016023  0.18445561     0.11800
H98         H  0.38354984  0.93808226  0.11613306     0.11800
C99         C  0.27416350  0.75384978  0.23649789    -0.14400
C100        C  0.25696986  0.71420423  0.27180103     0.07800
C101        C  0.22625362  0.74039907  0.30586727    -0.14400
C102        C  0.21041851  0.80392621  0.30303392    -0.14400
C103        C  0.22451977  0.84272405  0.26563107     0.07800
C104        C  0.25869503  0.81708845  0.23374390    -0.14400
H105        H  0.29850396  0.73530638  0.20988625     0.11800
H106        H  0.21277277  0.71113666  0.33364776     0.11800
H107        H  0.18647345  0.82151859  0.33011515     0.11800
H108        H  0.27186445  0.84553984  0.20542711     0.11800
C109        C  0.27126203  0.12552338  0.27936603    -0.14400
C110        C  0.30520270  0.09979224  0.24724977     0.07800
C111        C  0.32016180  0.13916654  0.21045662    -0.14400
C112        C  0.30608775  0.20337967  0.20878206    -0.14400
C113        C  0.27616250  0.22970828  0.24332063     0.07800
C114        C  0.25742950  0.18956079  0.27770801    -0.14400
H115        H  0.25741806  0.09662568  0.30720479     0.11800
H116        H  0.34378802  0.12162997  0.18314125     0.11800
H117        H  0.32064711  0.23308608  0.18167123     0.11800
H118        H  0.23352297  0.20835113  0.30455348     0.11800
C119        C  0.39325673  0.55979716  0.40109983    -0.14400
C120        C  0.38441681  0.49666081  0.38941024     0.07800
C121        C  0.40286687  0.44708423  0.41526249    -0.14400
C122        C  0.42803348  0.45980518  0.45239510    -0.14400
C123        C  0.43794768  0.52268169  0.46436205     0.07800
C124        C  0.41999179  0.57274224  0.43798862    -0.14400
H125        H  0.37869294  0.59907222  0.38237426     0.11800
H126        H  0.39614585  0.39774258  0.40807399     0.11800
H127        H  0.43920944  0.41984529  0.47247977     0.11800
H128        H  0.42442606  0.62191789  0.44690410     0.11600
C129        C  0.42704083  0.47495580  0.08029597    -0.14400
C130        C  0.41942700  0.51953081  0.04574768     0.07800
C131        C  0.37427116  0.55139406  0.04640649    -0.14400
C132        C  0.33926162  0.54221620  0.08101703    -0.14400
C133        C  0.34764613  0.50061503  0.11660103     0.07800
C134        C  0.39137836  0.46555040  0.11531882    -0.14400
H135        H  0.46086692  0.44870020  0.08123382     0.11800
H136        H  0.36664583  0.58559579  0.02057864     0.11800
H137        H  0.30561791  0.56914008  0.08026363     0.11800
H138        H  0.39870704  0.43278138  0.14209685     0.11800
C139        C  0.46265890  0.64438534  0.05012278    -0.14400
C140        C  0.47599605  0.60552267  0.01284246     0.07800
C141        C  0.50871866  0.63097482  0.97973058    -0.14400
C142        C  0.02607744  0.69330047  0.98152341    -0.14400
C143        C  0.50669257  0.73395533  0.01672780     0.07800
C144        C  0.47755883  0.70776299  0.05182039    -0.14400
H145        H  0.45164606  0.62075163  0.58033926     0.11800
H146        H  0.02410848  0.60196559  0.95084112     0.11800
H147        H  0.04879115  0.71225719  0.95400340     0.11800
H148        H  0.47895700  0.72981274  0.58227472     0.11800
C149        C  0.03969073  0.45637389  0.00352991    -0.14300
C150        C  0.50122507  0.49448676  0.00763078    -0.15800
C151        C  0.15922413  0.38432230  0.46444508    -0.14400
C152        C  0.11581533  0.42018570  0.46610810     0.07800
C153        C  0.11056840  0.46806945  0.43329675    -0.14400
C154        C  0.14722451  0.47782502  0.39929399    -0.14400
C155        C  0.18959400  0.43987767  0.39731149     0.07800
C156        C  0.19524002  0.39387743  0.43085192    -0.14400
H157        H  0.16486222  0.34752526  0.48908522     0.11800
H158        H  0.07815172  0.49747130  0.43331742     0.11800
H159        H  0.14193625  0.51385562  0.37406370     0.11800
H160        H  0.22758458  0.36420793  0.43102353     0.11800
C161        C  0.12102624  0.37324214  0.07532713    -0.14400
C162        C  0.10575508  0.42312654  0.04737725     0.07800
C163        C  0.11631350  0.48595702  0.05888274    -0.14400
C164        C  0.13982628  0.49890746  0.09693390    -0.14400
C165        C  0.15567149  0.44946848  0.12438969     0.07800
C166        C  0.14589697  0.38636143  0.11332495    -0.14400
H167        H  0.11579951  0.32400247  0.06705622     0.11800
H168        H  0.10678840  0.52561841  0.03775915     0.11800
H169        H  0.14733599  0.54817395  0.10365070     0.11800
H170        H  0.15842863  0.34717257  0.13337863     0.11800
C171        C  0.07463723  0.30673215  0.95937649    -0.14400
C172        C  0.06273993  0.34470866  0.99748276     0.07800
C173        C  0.02490052  0.31254039  0.53297063    -0.14400
C174        C  0.00742155  0.25078872  0.53040790    -0.14400
C175        C  0.02770399  0.21886397  0.99123777     0.07800
C176        C  0.05763441  0.24451775  0.95654000    -0.14400
H177        H  0.09747665  0.32410625  0.93154199     0.11800
H178        H  0.01473249  0.34032701  0.56232579     0.11800
H179        H  0.48224016  0.23510033  0.55544015     0.11800
H180        H  0.06946414  0.21575662  0.92807228     0.11800
C181        C  0.07747360  0.40508631  0.50412944    -0.03500
C182        C  0.46236198  0.53334763  0.50827973    -0.03500
O183        O  0.27945901  0.62247875  0.72528809    -0.81900
O184        O  0.27947170  0.33749208  0.71095095    -0.66600
O185        O  0.23850211  0.50716374  0.74068998    -1.13200
C186        C  0.35389172  0.47978802  0.85055649     1.05000
O187        O  0.26404204  0.31765470  0.78209381    -0.79800
O188        O  0.25672498  0.39601693  0.85167022    -0.67400
Ni189      Ni  0.23401410  0.57143238  0.69736122     1.34900
C190        C  0.22970848  0.44501389  0.85654460     0.83700
O191        O  0.21299588  0.41889828  0.67670715    -0.80300
O192        O  0.18973914  0.52145711  0.66703609    -0.90600
C193        C  0.27430291  0.29776337  0.74296946     0.83300
O194        O  0.28481775  0.54520476  0.65633222    -0.68800
O195        O  0.35153494  0.42050141  0.84184568    -0.88100
C196        C  0.31318926  0.49749821  0.65263972     0.84100
C197        C  0.18773760  0.46218312  0.65807045     1.05700
H198        H  0.33577014  0.43849677  0.75376080     0.37500
O199        O  0.30355529  0.43488339  0.76797481    -1.10800
O200        O  0.23388048  0.49368004  0.83105096    -0.67400
Ni201      Ni  0.28354643  0.51830046  0.78575021     1.26300
O202        O  0.30938341  0.44927495  0.67840100    -0.67600
O203        O  0.32962390  0.52340518  0.83125552    -0.79900
C204        C  0.26914004  0.64451181  0.76373203     0.83500
O205        O  0.26399457  0.60594041  0.79658272    -0.67100
Ni206      Ni  0.30813242  0.37013881  0.81089670     1.27400
Ni207      Ni  0.25897262  0.42409902  0.72260043     1.26100
H208        H  0.20643918  0.50344143  0.75508100     0.38000
C209        C  0.32492410  0.02888076  0.75056613    -0.03500
C210        C  0.20583627  0.91007269  0.75816313    -0.03500
O211        O  0.99271029  0.12040076  0.53280855    -0.81900
O212        O  0.51920937  0.83451292  0.54628794    -0.66600
O213        O  0.04134296  0.00755624  0.52215284    -1.13200
C214        C  0.43161807  0.99323786  0.90911225     1.05000
O215        O  0.52367178  0.82666981  0.97438972    -0.79800
O216        O  0.02746946  0.90566356  0.90646716    -0.67400
Ni217      Ni  0.03447843  0.06956239  0.56709545     1.34900
C218        C  0.05744727  0.95063013  0.90313651     0.83700
O219        O  0.07292994  0.91699093  0.58293480    -0.80300
O220        O  0.07573634  0.02020105  0.60322094    -0.90600
C221        C  0.52434965  0.79724399  0.51315299     0.83300
O222        O  0.48188650  0.04147210  0.59898163    -0.68800
O223        O  0.43206265  0.93392342  0.91903915    -0.88100
C224        C  0.46410123  0.98667747  0.60365734     0.84100
C225        C  0.08824617  0.96156047  0.60705756     1.05700
H226        H  0.45337411  0.93542458  0.50647029     0.37500
O227        O  0.48292026  0.94346454  0.99126546    -1.10800
O228        O  0.05537036  0.99777333  0.92950409    -0.67400
Ni229      Ni  0.00478550  0.02496349  0.97322584     1.26300
O230        O  0.47996876  0.93855973  0.58181475    -0.67600
O231        O  0.45829206  0.03447040  0.92642986    -0.79900
C232        C  0.00868635  0.14309099  0.49575409     0.83500
O233        O  0.02409630  0.11198186  0.96138679    -0.67100
Ni234      Ni  0.47739639  0.88100772  0.94792682     1.27400
Ni235      Ni  0.02734193  0.92116781  0.53702257     1.26100
H236        H  0.07450498  0.00894708  0.51021878     0.38000
C237        C  0.17385622  0.97239461  0.82936552    -0.14400
C238        C  0.16799099  0.92611793  0.79636238     0.07800
C239        C  0.12485297  0.89148108  0.79872085    -0.14400
C240        C  0.08950694  0.90098891  0.83278156    -0.14400
C241        C  0.09545814  0.94576738  0.86618658     0.07800
C242        C  0.13777265  0.98213252  0.86396713    -0.14400
H243        H  0.20636870  0.00021227  0.82915785     0.11800
H244        H  0.11893686  0.85523990  0.77445500     0.11800
H245        H  0.05738052  0.87223466  0.83297207     0.11800
H246        H  0.14338976  0.01692126  0.88934399     0.11800
C247        C  0.16841231  0.98361987  0.70217967    -0.14400
C248        C  0.18014717  0.92077936  0.71473820     0.07800
C249        C  0.16218677  0.87058040  0.68987858    -0.14400
C250        C  0.13331329  0.88322226  0.65411194    -0.14400
C251        C  0.12175813  0.94620260  0.64227518     0.07800
C252        C  0.14048367  0.99606000  0.66636048    -0.14400
H253        H  0.18005472  0.02364600  0.72097195     0.11800
H254        H  0.16822286  0.82144555  0.69923000     0.11800
H255        H  0.11889185  0.84371904  0.63663826     0.11800
H256        H  0.13246358  0.04531956  0.65845915     0.11800
C257        C  0.28207899  0.98751621  0.75210349    -0.14300
C258        C  0.24772113  0.95296472  0.75622056    -0.15800
C259        C  0.35689801  0.97969731  0.86948841    -0.14400
C260        C  0.39972453  0.01286841  0.87392679     0.07800
C261        C  0.41516361  0.05647442  0.84058669    -0.14400
C262        C  0.38967664  0.06347631  0.80207041    -0.14400
C263        C  0.34857186  0.02636535  0.79572160     0.07800
C264        C  0.33153558  0.98645569  0.83130921    -0.14400
H265        H  0.34403805  0.94610457  0.89494344     0.11800
H266        H  0.44850965  0.08209262  0.84299705     0.11800
H267        H  0.40371742  0.09519257  0.77594367     0.11800
H268        H  0.29966752  0.95786910  0.82966238     0.11800
C269        C  0.34463704  0.00976525  0.66758636    -0.14400
C270        C  0.35888037  0.00377492  0.71172135     0.07800
C271        C  0.40483992  0.97625708  0.71801251    -0.14400
C272        C  0.43777894  0.96488224  0.68175084    -0.14400
C273        C  0.42526185  0.97923986  0.63852994     0.07800
C274        C  0.37799640  0.99934925  0.63133833    -0.14400
H275        H  0.30885765  0.02793069  0.66134088     0.11800
H276        H  0.41661843  0.96573050  0.75080650     0.11800
H277        H  0.47422458  0.94888729  0.68767391     0.11800
H278        H  0.36783327  0.01064331  0.59800682     0.11800
C279        C  0.27493586  0.75382093  0.73132191    -0.14400
C280        C  0.26069378  0.71406940  0.76759311     0.07800
C281        C  0.23328883  0.74039266  0.80379417    -0.14400
C282        C  0.21702559  0.80378714  0.80206842    -0.14400
C283        C  0.22686129  0.84206943  0.76351308     0.07800
C284        C  0.25859113  0.81682720  0.72945960    -0.14400
H285        H  0.29712844  0.73538563  0.70320741     0.11800
H286        H  0.22252471  0.71127791  0.83252335     0.11800
H287        H  0.19591769  0.82167503  0.83088467     0.11800
H288        H  0.26896792  0.84530024  0.70029276     0.11800
C289        C  0.26763956  0.12291652  0.76777732    -0.14400
C290        C  0.30834755  0.09824737  0.74268637     0.07800
C291        C  0.33508700  0.14064576  0.71398547    -0.14400
C292        C  0.32145278  0.20491623  0.71074249    -0.14400
C293        C  0.28168658  0.22876767  0.73695829     0.07800
C294        C  0.25438447  0.18694399  0.76470896    -0.14400
H295        H  0.24679652  0.09294130  0.79105531     0.11800
H296        H  0.36805487  0.12535773  0.69559843     0.11800
H297        H  0.34400771  0.23678657  0.69024705     0.11800
H298        H  0.22392480  0.20455862  0.78578704     0.11800
C299        C  0.39348989  0.56003480  0.89795622    -0.14400
C300        C  0.38451348  0.49663199  0.88713802     0.07800
C301        C  0.40112996  0.44775538  0.91468529    -0.14400
C302        C  0.42473357  0.46158735  0.95257859    -0.14400
C303        C  0.43436679  0.52482211  0.96386432     0.07800
C304        C  0.41823617  0.57405830  0.93581263    -0.14400
H305        H  0.38035737  0.59879303  0.87785131     0.11800
H306        H  0.39422924  0.39826305  0.90812606     0.11800
H307        H  0.43499923  0.42235596  0.97376487     0.11800
H308        H  0.42266255  0.62352938  0.94388414     0.11600
C309        C  0.43147504  0.47483406  0.58159606    -0.14400
C310        C  0.42410309  0.51810652  0.54622464     0.07800
C311        C  0.37934914  0.55075047  0.54624871    -0.14400
C312        C  0.34352255  0.54137954  0.57987445    -0.14400
C313        C  0.35115623  0.50013630  0.61569764     0.07800
C314        C  0.39523270  0.46605463  0.61608706    -0.14400
H315        H  0.46541615  0.44905194  0.58346569     0.11800
H316        H  0.37221088  0.58487038  0.52027419     0.11800
H317        H  0.30977798  0.56782296  0.57810300     0.11800
H318        H  0.40214091  0.43420082  0.64350807     0.11800
C319        C  0.47280332  0.63861992  0.55156219    -0.14400
C320        C  0.48258201  0.60093284  0.51302840     0.07800
C321        C  0.51382067  0.62611314  0.47871037    -0.14400
C322        C  0.02404013  0.68644426  0.47859098    -0.14400
C323        C  0.51631589  0.72771154  0.51691121     0.07800
C324        C  0.48935595  0.70122007  0.55335011    -0.14400
H325        H  0.44010750  0.62685342  0.07809339     0.11800
H326        H  0.01759903  0.59582395  0.44791272     0.11800
H327        H  0.04377863  0.70564158  0.44934337     0.11800
H328        H  0.46450523  0.73700799  0.07965614     0.11800
C329        C  0.03536532  0.44943294  0.50501020    -0.14300
C330        C  0.50440520  0.48895347  0.50769149    -0.15800
C331        C  0.16548971  0.39452552  0.96506231    -0.14400
C332        C  0.12114961  0.42841310  0.96567504     0.07800
C333        C  0.11435258  0.47288045  0.93096181    -0.14400
C334        C  0.15004854  0.48047680  0.89585661    -0.14400
C335        C  0.19291714  0.44363151  0.89467158     0.07800
C336        C  0.20053962  0.40189375  0.93030854    -0.14400
H337        H  0.17232036  0.36009088  0.99096612     0.11800
H338        H  0.08109827  0.50040508  0.92995798     0.11800
H339        H  0.14342073  0.51338837  0.86897388     0.11800
H340        H  0.23356540  0.37364304  0.93104727     0.11800
C341        C  0.11612633  0.36801799  0.57729786    -0.14400
C342        C  0.10233372  0.41668416  0.54768426     0.07800
C343        C  0.11599922  0.47941648  0.55648059    -0.14400
C344        C  0.14179678  0.49337937  0.59301653    -0.14400
C345        C  0.15609289  0.44513463  0.62215376     0.07800
C346        C  0.14275504  0.38219311  0.61412251    -0.14400
H347        H  0.10835713  0.31874483  0.57130287     0.11800
H348        H  0.10744231  0.51808282  0.53412015     0.11800
H349        H  0.15205207  0.54232624  0.59736757     0.11800
H350        H  0.15371339  0.34386224  0.63572074     0.11800
C351        C  0.06625759  0.30016748  0.46033541    -0.14400
C352        C  0.05695354  0.33746374  0.49919527     0.07800
C353        C  0.02952328  0.31986425  0.03030298    -0.14400
C354        C  0.01257058  0.25802743  0.02737268    -0.14400
C355        C  0.02038342  0.21195437  0.49347878     0.07800
C356        C  0.04859486  0.23815939  0.45775574    -0.14400
H357        H  0.08753068  0.31804963  0.43165040     0.11800
H358        H  0.01789377  0.34790102  0.05917936     0.11800
H359        H  0.48665009  0.24189099  0.05628734     0.11800
H360        H  0.05840466  0.21006906  0.42846034     0.11800
C361        C  0.57878085  0.41584305  0.00431209    -0.03500
C362        C  0.96178327  0.53468241  0.00762015    -0.03500
O363        O  0.78396243  0.62358230  0.22974373    -0.81900
O364        O  0.77455294  0.34005949  0.21090204    -0.66600
O365        O  0.73888434  0.51138170  0.24198307    -1.13200
C366        C  0.85316857  0.47553228  0.35229126     1.05000
O367        O  0.75905996  0.32211136  0.28202347    -0.79800
O368        O  0.75637352  0.39538869  0.35271670    -0.67400
Ni369      Ni  0.73735587  0.57736336  0.19966249     1.34900
C370        C  0.72786141  0.44283224  0.35725027     0.83700
O371        O  0.71110096  0.42725441  0.17732392    -0.80300
O372        O  0.69178665  0.53144458  0.16778129    -0.90600
C373        C  0.76858485  0.30083092  0.24326998     0.83300
O374        O  0.78764994  0.54980002  0.15841510    -0.68800
O375        O  0.85160957  0.41681988  0.34152598    -0.88100
C376        C  0.81384171  0.50013511  0.15355031     0.84100
C377        C  0.68746751  0.47239636  0.15884184     1.05700
H378        H  0.83425317  0.43936935  0.25451686     0.37500
O379        O  0.80203285  0.43578348  0.26874041    -1.10800
O380        O  0.73162498  0.49211350  0.33208660    -0.67400
Ni381      Ni  0.78289967  0.51860677  0.28828210     1.26300
O382        O  0.80832395  0.45137395  0.17870747    -0.67600
O383        O  0.82802076  0.51987165  0.33471612    -0.79900
C384        C  0.77188067  0.64568565  0.26785848     0.83500
O385        O  0.76473489  0.60669716  0.30036443    -0.67100
Ni386      Ni  0.80608045  0.36964606  0.31054800     1.27400
Ni387      Ni  0.75717887  0.42809497  0.22307822     1.26100
H388        H  0.70641926  0.50896928  0.25569979     0.38000
C389        C  0.82480461  0.03319185  0.25077553    -0.03500
C390        C  0.70703738  0.91133538  0.25749784    -0.03500
O391        O  0.50285979  0.12839687  0.03355269    -0.81900
O392        O  0.01373017  0.84017096  0.04678254    -0.66600
O393        O  0.54655347  0.01336228  0.01942066    -1.13200
C394        C  0.93087507  0.97808666  0.40852005     1.05000
O395        O  0.02855409  0.81880664  0.47412326    -0.79800
O396        O  0.52968791  0.90091055  0.40574273    -0.67400
Ni397      Ni  0.54824144  0.07636196  0.06279158     1.34900
C398        C  0.55730313  0.94842713  0.40250244     0.83700
O399        O  0.57482881  0.92216782  0.08183507    -0.80300
O400        O  0.59271519  0.02521574  0.09356981    -0.90600
C401        C  0.01741302  0.80246155  0.01360623     0.83300
O402        O  0.99957675  0.04949715  0.10187649    -0.68800
O403        O  0.93274633  0.91919811  0.41943140    -0.88100
C404        C  0.97452766  0.99981124  0.10678994     0.84100
C405        C  0.59767560  0.96560761  0.10144350     1.05700
H406        H  0.95341098  0.94699366  0.00701386     0.37500
O407        O  0.98235548  0.93243565  0.49156509    -1.10800
O408        O  0.55369837  0.99443718  0.43003943    -0.67400
Ni409      Ni  0.50089173  0.01776749  0.47339105     1.26300
O410        O  0.98107159  0.95134741  0.08192384    -0.67600
O411        O  0.95624544  0.02101994  0.42573964    -0.79900
C412        C  0.51561306  0.15172671  0.99581890     0.83500
O413        O  0.51646362  0.10617818  0.46171360    -0.67100
Ni414      Ni  0.98012922  0.86965424  0.44785099     1.27400
Ni415      Ni  0.52823574  0.92927576  0.03622809     1.26100
H416        H  0.57906005  0.01040289  0.00573602     0.38000
C417        C  0.67323465  0.97412202  0.32816943    -0.14400
C418        C  0.66781852  0.92837151  0.29465866     0.07800
C419        C  0.62390293  0.89546741  0.29554112    -0.14400
C420        C  0.58806687  0.90477359  0.32942593    -0.14400
C421        C  0.59439077  0.94727301  0.36429316     0.07800
C422        C  0.63677977  0.98344228  0.36265036    -0.14400
H423        H  0.70597790  0.00137272  0.32872199     0.11800
H424        H  0.61793292  0.86041618  0.27042700     0.11800
H425        H  0.55554890  0.87691681  0.32874975     0.11800
H426        H  0.64250451  0.01706241  0.38874048     0.11800
C427        C  0.66984710  0.98468872  0.20191866    -0.14400
C428        C  0.68321427  0.92195739  0.21309161     0.07800
C429        C  0.66989318  0.87243530  0.18498455    -0.14400
C430        C  0.64338204  0.88581505  0.14757778    -0.14400
C431        C  0.62998246  0.94880369  0.13738397     0.07800
C432        C  0.64453798  0.99787349  0.16469654    -0.14400
H433        H  0.67814642  0.02405237  0.22297065     0.11800
H434        H  0.67773952  0.82319727  0.19276137     0.11800
H435        H  0.63235870  0.84691839  0.12740811     0.11800
H436        H  0.63465480  0.04709552  0.15859874     0.11800
C437        C  0.78235312  0.99089625  0.25111293    -0.14300
C438        C  0.74880819  0.95486171  0.25606923    -0.15800
C439        C  0.88101528  0.94575520  0.34718427    -0.14400
C440        C  0.89929844  0.99498844  0.37213531     0.07800
C441        C  0.89055271  0.05828652  0.35913957    -0.14400
C442        C  0.86451142  0.07176656  0.32159688    -0.14400
C443        C  0.84735602  0.02204518  0.29574814     0.07800
C444        C  0.85659147  0.95894166  0.30934392    -0.14400
H445        H  0.88745697  0.89625878  0.35556629     0.11800
H446        H  0.90483826  0.09725440  0.37725936     0.11800
H447        H  0.86028211  0.12100428  0.31165347     0.11800
H448        H  0.84570971  0.91916272  0.28989141     0.11800
C449        C  0.85711677  0.97554142  0.17798985    -0.14400
C450        C  0.86433679  0.01598369  0.21420466     0.07800
C451        C  0.90941348  0.04593877  0.21525052    -0.14400
C452        C  0.94513759  0.03792740  0.18120662    -0.14400
C453        C  0.93729664  0.00013352  0.14434391     0.07800
C454        C  0.89342191  0.96768603  0.14336228    -0.14400
H455        H  0.82301434  0.95194112  0.17534506     0.11800
H456        H  0.91651264  0.07801295  0.24185014     0.11800
H457        H  0.97880751  0.06298727  0.18327841     0.11800
H458        H  0.88649650  0.93845930  0.11512014     0.11800
C459        C  0.77902765  0.75514224  0.23552890    -0.14400
C460        C  0.76256824  0.71534101  0.27110005     0.07800
C461        C  0.73191913  0.74148980  0.30523418    -0.14400
C462        C  0.71505615  0.80460798  0.30206928    -0.14400
C463        C  0.72768097  0.84307959  0.26411468     0.07800
C464        C  0.76210826  0.81787158  0.23221658    -0.14400
H465        H  0.80354788  0.73688206  0.20894887     0.11800
H466        H  0.71913838  0.71237001  0.33333581     0.11800
H467        H  0.69140676  0.82211449  0.32937304     0.11800
H468        H  0.77448261  0.84621488  0.20357611     0.11800
C469        C  0.77189086  0.12791093  0.27625207    -0.14400
C470        C  0.80564041  0.10190146  0.24418393     0.07800
C471        C  0.81974187  0.14049677  0.20666905    -0.14400
C472        C  0.80494181  0.20447006  0.20423153    -0.14400
C473        C  0.77510809  0.23115126  0.23872115     0.07800
C474        C  0.75710751  0.19145434  0.27369059    -0.14400
H475        H  0.75870754  0.09959849  0.30462345     0.11800
H476        H  0.84322070  0.12250331  0.17938816     0.11800
H477        H  0.81891193  0.23374827  0.17664490     0.11800
H478        H  0.73321741  0.21039460  0.30049298     0.11800
C479        C  0.89085057  0.55457940  0.40162582    -0.14400
C480        C  0.88386903  0.49135381  0.38903721     0.07800
C481        C  0.90234621  0.44196120  0.41501005    -0.14400
C482        C  0.92614501  0.45515937  0.45299138    -0.14400
C483        C  0.93449688  0.51834526  0.46556287     0.07800
C484        C  0.91583638  0.56798591  0.43938318    -0.14400
H485        H  0.87602846  0.59369497  0.38292158     0.11800
H486        H  0.89679681  0.39255869  0.40710984     0.11800
H487        H  0.93780880  0.41539203  0.47300513     0.11800
H488        H  0.91880292  0.61721247  0.44879902     0.11600
C489        C  0.93067172  0.47437234  0.08038450    -0.14400
C490        C  0.92318104  0.51774274  0.04507391     0.07800
C491        C  0.87815580  0.54985112  0.04518868    -0.14400
C492        C  0.84293618  0.54164018  0.07960458    -0.14400
C493        C  0.85101110  0.50106751  0.11570368     0.07800
C494        C  0.89476821  0.46610093  0.11536853    -0.14400
H495        H  0.96457183  0.44842029  0.08196595     0.11800
H496        H  0.87072644  0.58375795  0.01917463     0.11800
H497        H  0.80935818  0.56859313  0.07830455     0.11800
H498        H  0.90188350  0.43435246  0.14278870     0.11800
C499        C  0.96672496  0.64199075  0.05052891    -0.14400
C500        C  0.97972537  0.60368157  0.01279211     0.07800
C501        C  0.01169179  0.62998971  0.97950044    -0.14400
C502        C  0.52333929  0.69417935  0.98138952    -0.14400
C503        C  0.00980352  0.73258473  0.01730940     0.07800
C504        C  0.98125161  0.70560714  0.05251341    -0.14400
H505        H  0.95317009  0.61588264  0.58197221     0.11800
H506        H  0.52146167  0.60238762  0.95144137     0.11800
H507        H  0.54652621  0.71262175  0.95400829     0.11800
H508        H  0.97900563  0.72563820  0.58288307     0.11800
C509        C  0.53591901  0.45892989  0.00387984    -0.14300
C510        C  0.00528444  0.49246428  0.00758934    -0.15800
C511        C  0.65931553  0.38192530  0.46143260    -0.14400
C512        C  0.61682772  0.41961788  0.46431611     0.07800
C513        C  0.61196524  0.46826892  0.43192072    -0.14400
C514        C  0.64818168  0.47746493  0.39743533    -0.14400
C515        C  0.68966358  0.43796949  0.39430139     0.07800
C516        C  0.69462348  0.39037318  0.42698520    -0.14400
H517        H  0.66454162  0.34428060  0.48555640     0.11800
H518        H  0.58019631  0.49892819  0.43267689     0.11800
H519        H  0.64328534  0.51447974  0.37281418     0.11800
H520        H  0.72609432  0.35900218  0.42609361     0.11800
C521        C  0.61689066  0.37967158  0.07736642    -0.14400
C522        C  0.60184147  0.42853175  0.04858861     0.07800
C523        C  0.61333303  0.49174892  0.05865743    -0.14400
C524        C  0.63873048  0.50570703  0.09559784    -0.14400
C525        C  0.65491999  0.45686355  0.12338029     0.07800
C526        C  0.64317998  0.39375529  0.11421297    -0.14400
H527        H  0.61082598  0.33021225  0.07039169     0.11800
H528        H  0.60366430  0.53065982  0.03693521     0.11800
H529        H  0.64748423  0.55492002  0.10113836     0.11800
H530        H  0.65554365  0.35501492  0.13475452     0.11800
C531        C  0.57259247  0.30901833  0.96144134    -0.14400
C532        C  0.56000360  0.34736991  0.99925441     0.07800
C533        C  0.52372754  0.31406716  0.53057428    -0.14400
C534        C  0.50555269  0.25267696  0.52785812    -0.14400
C535        C  0.52597994  0.22077079  0.99324733     0.07800
C536        C  0.55600559  0.24658479  0.95868082    -0.14400
H537        H  0.59562428  0.32629455  0.93370100     0.11800
H538        H  0.51335620  0.34221165  0.55971903     0.11800
H539        H  0.98484438  0.23271794  0.55832023     0.11800
H540        H  0.56821949  0.21779198  0.93034047     0.11800
C541        C  0.57851616  0.40494306  0.50252571    -0.03500
C542        C  0.95905694  0.52991955  0.50922835    -0.03500
O543        O  0.77512139  0.62104365  0.72734387    -0.81900
O544        O  0.77624996  0.33472561  0.71435726    -0.66600
O545        O  0.73582595  0.50493110  0.74304944    -1.13200
C546        C  0.85287973  0.47823380  0.85244382     1.05000
O547        O  0.76062425  0.31702303  0.78574715    -0.79800
O548        O  0.75488147  0.39553702  0.85505164    -0.67400
Ni549      Ni  0.73015601  0.56879735  0.69971533     1.34900
C550        C  0.72742356  0.44423180  0.85891520     0.83700
O551        O  0.70981031  0.41562058  0.67933212    -0.80300
O552        O  0.68617263  0.51791738  0.66958167    -0.90600
C553        C  0.77093733  0.29589974  0.74696947     0.83300
O554        O  0.78112400  0.54309159  0.65860057    -0.68800
O555        O  0.85009059  0.41887324  0.84403152    -0.88100
C556        C  0.80955274  0.49544313  0.65440634     0.84100
C557        C  0.68462454  0.45868362  0.66035488     1.05700
H558        H  0.83323321  0.43637200  0.75587429     0.37500
O559        O  0.80110702  0.43301474  0.77032494    -1.10800
O560        O  0.73156816  0.49221583  0.83293006    -0.67400
Ni561      Ni  0.78128731  0.51655046  0.78794110     1.26300
O562        O  0.80598309  0.44690128  0.68008445    -0.67600
O563        O  0.82789875  0.52168538  0.83351062    -0.79900
C564        C  0.76535276  0.64290903  0.76595237     0.83500
O565        O  0.76145387  0.60426706  0.79886931    -0.67100
Ni566      Ni  0.80568291  0.36882171  0.81383542     1.27400
Ni567      Ni  0.75609185  0.42168361  0.72514098     1.26100
H568        H  0.70389209  0.50105261  0.75767306     0.38000
C569        C  0.82406175  0.02742421  0.75395776    -0.03500
C570        C  0.70469678  0.91030864  0.75975132    -0.03500
O571        O  0.49333232  0.12176917  0.53146369    -0.81900
O572        O  0.01382124  0.83162634  0.54567342    -0.66600
O573        O  0.54405429  0.01065441  0.52070281    -1.13200
C574        C  0.93167436  0.99078141  0.91128398     1.05000
O575        O  0.02577476  0.82553780  0.97496514    -0.79800
O576        O  0.52722424  0.90803804  0.90666390    -0.67400
Ni577      Ni  0.53678056  0.07318707  0.56550218     1.34900
C578        C  0.55642953  0.95380201  0.90340556     0.83700
O579        O  0.57748119  0.92233783  0.58190819    -0.80300
O580        O  0.57939320  0.02582675  0.60177271    -0.90600
C581        C  0.01955535  0.79473978  0.51234935     0.83300
O582        O  0.97870252  0.03885120  0.59980226    -0.68800
O583        O  0.93213515  0.93160289  0.92154524    -0.88100
C584        C  0.96034917  0.98435629  0.60440202     0.84100
C585        C  0.59219870  0.96731917  0.60599621     1.05700
H586        H  0.95002388  0.93507176  0.50579161     0.37500
O587        O  0.98520973  0.94205056  0.99197454    -1.10800
O588        O  0.55383346  0.00081596  0.92986171    -0.67400
Ni589      Ni  0.50276013  0.02679821  0.97341117     1.26300
O590        O  0.97554339  0.93612516  0.58221061    -0.67600
O591        O  0.95943305  0.03187878  0.92720534    -0.79900
C592        C  0.50815665  0.14440588  0.49407614     0.83500
O593        O  0.52220241  0.11415066  0.96285790    -0.67100
Ni594      Ni  0.97862020  0.87915448  0.94924508     1.27400
Ni595      Ni  0.53147713  0.92420105  0.53649234     1.26100
H596        H  0.57694267  0.01281802  0.50813926     0.38000
C597        C  0.67350914  0.97313798  0.83087734    -0.14400
C598        C  0.66686234  0.92763566  0.79749232     0.07800
C599        C  0.62263240  0.89572815  0.79858485    -0.14400
C600        C  0.58699196  0.90673634  0.83204156    -0.14400
C601        C  0.59403852  0.94977518  0.86628883     0.07800
C602        C  0.63721884  0.98414774  0.86501608    -0.14400
H603        H  0.70683581  0.99907792  0.83147391     0.11800
H604        H  0.61602637  0.86062205  0.77369355     0.11800
H605        H  0.55389651  0.88008338  0.83133964     0.11800
H606        H  0.64347305  0.01783113  0.89094157     0.11800
C607        C  0.66706277  0.98645131  0.70542378    -0.14400
C608        C  0.68004208  0.92315106  0.71602023     0.07800
C609        C  0.66495011  0.87433167  0.68840122    -0.14400
C610        C  0.63783181  0.88856511  0.65178593    -0.14400
C611        C  0.62473585  0.95175579  0.64195583     0.07800
C612        C  0.64029708  0.00051040  0.66897819    -0.14400
H613        H  0.67672815  0.02532522  0.72632717     0.11800
H614        H  0.67186675  0.82480430  0.69597336     0.11800
H615        H  0.62582095  0.84981020  0.63202731     0.11800
H616        H  0.63068379  0.04981568  0.66283206     0.11800
C617        C  0.78138915  0.98624219  0.75522028    -0.14300
C618        C  0.74707436  0.95181996  0.75859520    -0.15800
C619        C  0.85669106  0.97614379  0.87225085    -0.14400
C620        C  0.89894614  0.01045714  0.87693230     0.07800
C621        C  0.91352078  0.05532774  0.84419504    -0.14400
C622        C  0.88823218  0.06198103  0.80564658    -0.14400
C623        C  0.84791274  0.02376335  0.79887968     0.07800
C624        C  0.83139248  0.98272085  0.83403401    -0.14400
H625        H  0.84442716  0.94170657  0.89736857     0.11800
H626        H  0.94627533  0.08209294  0.84695830     0.11800
H627        H  0.90166467  0.09470248  0.77989805     0.11800
H628        H  0.80005924  0.95322267  0.83196646     0.11800
C629        C  0.84235026  0.00931861  0.67066711    -0.14400
C630        C  0.85755643  0.00317653  0.71449635     0.07800
C631        C  0.90361752  0.97546738  0.71990203    -0.14400
C632        C  0.93552332  0.96319566  0.68298141    -0.14400
C633        C  0.92206261  0.97740346  0.63997539     0.07800
C634        C  0.87480313  0.99853279  0.63379848    -0.14400
H635        H  0.80646659  0.02777267  0.66511511     0.11800
H636        H  0.91617909  0.96522551  0.75245733     0.11800
H637        H  0.97201691  0.94666930  0.68818310     0.11800
H638        H  0.86392134  0.01010751  0.60074326     0.11800
C639        C  0.77237005  0.75237877  0.73407783    -0.14400
C640        C  0.75691105  0.71260129  0.76994065     0.07800
C641        C  0.72851798  0.73915251  0.80551060    -0.14400
C642        C  0.71270401  0.80286132  0.80344974    -0.14400
C643        C  0.72425249  0.84139505  0.76528334     0.07800
C644        C  0.75675633  0.81569484  0.73200853    -0.14400
H645        H  0.79522825  0.73380056  0.70644271     0.11800
H646        H  0.71668858  0.71002597  0.83392491     0.11800
H647        H  0.69075095  0.82088225  0.83172561     0.11800
H648        H  0.76842495  0.84416398  0.70320443     0.11800
C649        C  0.76807150  0.12137727  0.77469328    -0.14400
C650        C  0.80709864  0.09683248  0.74729028     0.07800
C651        C  0.83170093  0.13920128  0.71706201    -0.14400
C652        C  0.81720378  0.20307399  0.71400139    -0.14400
C653        C  0.77897414  0.22682599  0.74210406     0.07800
C654        C  0.75411543  0.18521673  0.77197829    -0.14400
H655        H  0.74912210  0.09136780  0.79926727     0.11800
H656        H  0.86369180  0.12431295  0.69707520     0.11800
H657        H  0.83802006  0.23481970  0.69188996     0.11800
H658        H  0.72497058  0.20276170  0.79463301     0.11800
C659        C  0.89190892  0.55860789  0.90066162    -0.14400
C660        C  0.88534900  0.49532012  0.88791318     0.07800
C661        C  0.90669449  0.44636043  0.91247406    -0.14400
C662        C  0.93169373  0.45977135  0.94976180    -0.14400
C663        C  0.93855590  0.52296474  0.96312408     0.07800
C664        C  0.91846716  0.57233646  0.93754861    -0.14400
H665        H  0.87536702  0.59743453  0.88295589     0.11800
H666        H  0.90230667  0.39683578  0.90423306     0.11800
H667        H  0.94490774  0.42003635  0.96893378     0.11800
H668        H  0.92091391  0.62151729  0.94726536     0.11600
C669        C  0.92504781  0.46704261  0.57974329    -0.14400
C670        C  0.92058496  0.51559013  0.54727015     0.07800
C671        C  0.87818662  0.55353385  0.54980132    -0.14400
C672        C  0.84264855  0.54560032  0.58402959    -0.14400
C673        C  0.84752183  0.49881934  0.61716658     0.07800
C674        C  0.88871253  0.45865951  0.61426011    -0.14400
H675        H  0.95661054  0.43601021  0.57903406     0.11800
H676        H  0.87312812  0.59108333  0.52560990     0.11800
H677        H  0.81122610  0.57703568  0.58456628     0.11800
H678        H  0.89334359  0.42188435  0.63911273     0.11800
C679        C  0.97197299  0.63466729  0.55219963    -0.14400
C680        C  0.97946786  0.59764012  0.51312199     0.07800
C681        C  0.00869086  0.62352050  0.47757423    -0.14400
C682        C  0.52987725  0.68861614  0.48036154    -0.14400
C683        C  0.01208666  0.72504116  0.51580256     0.07800
C684        C  0.98778116  0.69762124  0.55334789    -0.14400
H685        H  0.94467942  0.62381653  0.07863155     0.11800
H686        H  0.52399255  0.59810401  0.44946120     0.11800
H687        H  0.55143831  0.70722123  0.45197207     0.11800
H688        H  0.96839850  0.73436303  0.08067035     0.11800
C689        C  0.53723972  0.45063474  0.50359114    -0.14300
C690        C  0.00147563  0.48617348  0.50898948    -0.15800
C691        C  0.66300384  0.39963687  0.96828859    -0.14400
C692        C  0.61773807  0.43099544  0.96695427     0.07800
C693        C  0.60987073  0.47098213  0.92999012    -0.14400
C694        C  0.64585212  0.47730437  0.89503650    -0.14400
C695        C  0.69005847  0.44374277  0.89637648     0.07800
C696        C  0.69843427  0.40606154  0.93382847    -0.14400
H697        H  0.67048453  0.36801760  0.99565837     0.11800
H698        H  0.57559100  0.49560382  0.92713974     0.11800
H699        H  0.63852596  0.50655945  0.86638458     0.11800
H700        H  0.73237672  0.38025768  0.93622088     0.11800
C701        C  0.61620674  0.36569417  0.57591017    -0.14400
C702        C  0.60336634  0.41506344  0.54638771     0.07800
C703        C  0.61669773  0.47747888  0.55640648    -0.14400
C704        C  0.64058366  0.49067004  0.59425419    -0.14400
C705        C  0.65404600  0.44187019  0.62336058     0.07800
C706        C  0.64148300  0.37900926  0.61387870    -0.14400
H707        H  0.60848130  0.31662898  0.56910285     0.11800
H708        H  0.60884989  0.51674369  0.53430147     0.11800
H709        H  0.65017844  0.53962025  0.59961173     0.11800
H710        H  0.65186575  0.34016952  0.63530531     0.11800
C711        C  0.56615751  0.30050671  0.45850949    -0.14400
C712        C  0.55676411  0.33808335  0.49722626     0.07800
C713        C  0.52676534  0.32229644  0.03197352    -0.14400
C714        C  0.51044524  0.26002562  0.02924245    -0.14400
C715        C  0.51915943  0.21331397  0.49136283     0.07800
C716        C  0.54811090  0.23879738  0.45593078    -0.14400
H717        H  0.58795088  0.31775311  0.42996392     0.11800
H718        H  0.51463638  0.35049584  0.06062191     0.11800
H719        H  0.98878606  0.24004212  0.05448159     0.11800
H720        H  0.55840280  0.21023671  0.42696797     0.11800
loop_ 
_geom_bond_atom_site_label_1 
_geom_bond_atom_site_label_2 
_geom_bond_distance 
_geom_bond_site_symmetry_2 
_ccdc_geom_bond_type 
C1          C149   1.484       .  S
C1          C162   1.541       .  S
C1          C172   1.548   1_554  S
C1          C332   1.542   1_554  S
C2          C150   1.483       .  S
C2          C130   1.546       .  S
C2          C140   1.551       .  S
C2          C303   1.542   1_554  S
O3           Ni9   1.905       .  S
O3           C24   1.264       .  A
O4          Ni27   1.932       .  S
O4           C13   1.275       .  A
O5           Ni9   1.871       .  S
O5          Ni27   1.896       .  S
O5          Ni21   1.921       .  S
O5           H28   0.966       .  S
C6           O23   1.286       .  A
C6           O15   1.280       .  A
C6          C120   1.484       .  S
O7          Ni26   1.910       .  S
O7           C13   1.265       .  A
O8          Ni26   1.891       .  S
O8           C10   1.266       .  A
Ni9          O12   1.907       .  S
Ni9          O14   1.891       .  S
C10          O20   1.276       .  A
C10         C155   1.487       .  S
O11         Ni27   1.941       .  S
O11          C17   1.287       .  A
O12          C17   1.280       .  A
C13         C113   1.478       .  S
O14          C16   1.265       .  A
O15         Ni26   1.907       .  S
C16          O22   1.276       .  A
C16         C133   1.488       .  S
C17         C165   1.483       .  S
H18          O19   0.967       .  S
O19         Ni27   1.921       .  S
O19         Ni21   1.899       .  S
O19         Ni26   1.873       .  S
O20         Ni21   1.948       .  S
Ni21         O25   1.936       .  S
Ni21         O23   1.944       .  S
O22         Ni27   1.952       .  S
C24          O25   1.275       .  A
C24         C100   1.480       .  S
C29          C77   1.480   1_545  S
C29          C83   1.540       .  S
C29          C90   1.542       .  S
C29         C110   1.546       .  S
C30          C78   1.480       .  S
C30          C58   1.541       .  S
C30          C68   1.542       .  S
C30         C103   1.547       .  S
O31         Ni37   1.905       .  S
O31          C52   1.263   1_554  A
O32        Ni415   1.941       .  S
O32          C41   1.276       .  A
O33         Ni37   1.872       .  S
O33         Ni55   1.901   1_545  S
O33        Ni229   1.914   1_554  S
O33          H56   0.966       .  S
C34          O51   1.286   1_565  A
C34          O43   1.279       .  A
C34          C80   1.479       .  S
O35         Ni54   1.908       .  S
O35         C221   1.264       .  A
O36        Ni414   1.889   1_455  S
O36          C38   1.266       .  A
Ni37         O40   1.902       .  S
Ni37        O402   1.888   1_455  S
C38          O48   1.275       .  A
C38          C61   1.483       .  S
O39         Ni55   1.944       .  S
O39          C45   1.289       .  A
O40          C45   1.280   1_545  A
C41         O215   1.265   1_554  A
C41         C143   1.485       .  S
O42        Ni397   1.890       .  S
O42          C44   1.266   1_545  A
O43         Ni54   1.904       .  S
C44          O50   1.273       .  A
C44          C93   1.480       .  S
C45          C71   1.481       .  S
H46         O227   0.967   1_554  S
O47         Ni54   1.875       .  S
O47        Ni595   1.921       .  S
O47        Ni409   1.901   1_565  S
O47         H226   0.967       .  S
O48         Ni49   1.947   1_465  S
Ni49         O53   1.941   1_655  S
Ni49        O411   1.946       .  S
Ni49        O213   1.920   1_655  S
Ni49        O407   1.905   1_545  S
O50        Ni415   1.943       .  S
O51        Ni409   1.940       .  S
C52         O233   1.274       .  A
C52         C175   1.482       .  S
O53         C232   1.276       .  A
Ni54        O396   1.892       .  S
Ni55        O392   1.948       .  S
Ni55        O410   1.942   1_455  S
Ni55        O587   1.921   1_454  S
C57          C58   1.417       .  A
C57          C62   1.410       .  A
C57          H63   1.082       .  S
C58          C59   1.406       .  A
C59          C60   1.384       .  A
C59          H64   1.083       .  S
C60          C61   1.404       .  A
C60          H65   1.083       .  S
C61          C62   1.406       .  A
C62          H66   1.083   1_565  S
C67          C68   1.408       .  A
C67          C72   1.386       .  A
C67          H73   1.084   1_565  S
C68          C69   1.416       .  A
C69          C70   1.404       .  A
C69          H74   1.080       .  S
C70          C71   1.403       .  A
C70          H75   1.083       .  S
C71          C72   1.406       .  A
C72          H76   1.083   1_565  S
C77          C78   1.206       .  T
C79          C80   1.405       .  A
C79          C84   1.387       .  A
C79          H85   1.083       .  S
C80          C81   1.403   1_565  A
C81          C82   1.402       .  A
C81          H86   1.083       .  S
C82          C83   1.415       .  A
C82          H87   1.081       .  S
C83          C84   1.409   1_545  A
C84          H88   1.084       .  S
C89          C90   1.416   1_565  A
C89          C94   1.409       .  A
C89          H95   1.082       .  S
C90          C91   1.409       .  A
C91          C92   1.386       .  A
C91          H96   1.082       .  S
C92          C93   1.402   1_545  A
C92          H97   1.084       .  S
C93          C94   1.405       .  A
C94          H98   1.083       .  S
C99         C100   1.407       .  A
C99         C104   1.393       .  A
C99         H105   1.083       .  S
C100        C101   1.399       .  A
C101        C102   1.402       .  A
C101        H106   1.083       .  S
C102        C103   1.421       .  A
C102        H107   1.080       .  S
C103        C104   1.407       .  A
C104        H108   1.083       .  S
C109        C110   1.408       .  A
C109        C114   1.395       .  A
C109        H115   1.083       .  S
C110        C111   1.420       .  A
C111        C112   1.400       .  A
C111        H116   1.080       .  S
C112        C113   1.398       .  A
C112        H117   1.083       .  S
C113        C114   1.407       .  A
C114        H118   1.083       .  S
C119        C120   1.405       .  A
C119        C124   1.406       .  A
C119        H125   1.083       .  S
C120        C121   1.405       .  A
C121        C122   1.386       .  A
C121        H126   1.083       .  S
C122        C123   1.409       .  A
C122        H127   1.083       .  S
C123        C182   1.544       .  S
C123        C124   1.416       .  A
C124        H128   1.081       .  S
C129        C130   1.417       .  A
C129        C134   1.410       .  A
C129        H135   1.081       .  S
C130        C131   1.408       .  A
C131        C132   1.389       .  A
C131        H136   1.083       .  S
C132        C133   1.405       .  A
C132        H137   1.083       .  S
C133        C134   1.406       .  A
C134        H138   1.083       .  S
C139        C140   1.420       .  A
C139        C144   1.403       .  A
C139        H325   1.080       .  S
C140        C141   1.409   1_554  A
C141        C502   1.397       .  A
C141        H506   1.083       .  S
C142        C501   1.398       .  A
C142        C503   1.409   1_556  A
C142        H147   1.083       .  S
C143        C144   1.400       .  A
C143        C502   1.408   1_554  A
C144        H328   1.083       .  S
H145        C319   1.081       .  S
H146        C501   1.083       .  S
H148        C324   1.083       .  S
C149        C510   1.208       .  T
C150        C509   1.207       .  T
C151        C152   1.406       .  A
C151        C156   1.388       .  A
C151        H157   1.083       .  S
C152        C181   1.543       .  S
C152        C153   1.416       .  A
C153        C154   1.409       .  A
C153        H158   1.081       .  S
C154        C155   1.406       .  A
C154        H159   1.083       .  S
C155        C156   1.406       .  A
C156        H160   1.083       .  S
C161        C162   1.415       .  A
C161        C166   1.406       .  A
C161        H167   1.081       .  S
C162        C163   1.409       .  A
C163        C164   1.386       .  A
C163        H168   1.084       .  S
C164        C165   1.405       .  A
C164        H169   1.083       .  S
C165        C166   1.405       .  A
C166        H170   1.083       .  S
C171        C172   1.421       .  A
C171        C176   1.402       .  A
C171        H177   1.080       .  S
C172        C353   1.407   1_556  A
C173        C174   1.397       .  A
C173        C352   1.407       .  A
C173        H178   1.083       .  S
C174        C355   1.409       .  A
C174        H539   1.083   1_455  S
C175        C176   1.399       .  A
C175        C354   1.408   1_556  A
C176        H180   1.083       .  S
H179        C534   1.083       .  S
C181        C329   1.480       .  S
C181        C342   1.544       .  S
C181        C352   1.551       .  S
C182        C330   1.479       .  S
C182        C310   1.540       .  S
C182        C320   1.547       .  S
O183       Ni189   1.909       .  S
O183        C204   1.264       .  A
O184       Ni207   1.926       .  S
O184        C193   1.272       .  A
O185       Ni189   1.877       .  S
O185       Ni207   1.900       .  S
O185       Ni201   1.921       .  S
O185        H208   0.965       .  S
C186        O203   1.285       .  A
C186        O195   1.279       .  A
C186        C300   1.483       .  S
O187       Ni206   1.914       .  S
O187        C193   1.266       .  A
O188       Ni206   1.893       .  S
O188        C190   1.267       .  A
Ni189       O192   1.910       .  S
Ni189       O194   1.888       .  S
C190        O200   1.275       .  A
C190        C335   1.483       .  S
O191       Ni207   1.945       .  S
O191        C197   1.286       .  A
O192        C197   1.280       .  A
C193        C293   1.472       .  S
O194        C196   1.265       .  A
O195       Ni206   1.908       .  S
C196        O202   1.272       .  A
C196        C313   1.480       .  S
C197        C345   1.486       .  S
H198        O199   0.967       .  S
O199       Ni207   1.919       .  S
O199       Ni201   1.901       .  S
O199       Ni206   1.876       .  S
O200       Ni201   1.944       .  S
Ni201       O205   1.936       .  S
Ni201       O203   1.938       .  S
O202       Ni207   1.939       .  S
C204        O205   1.275       .  A
C204        C280   1.481       .  S
C209        C257   1.480   1_545  S
C209        C263   1.548       .  S
C209        C270   1.542       .  S
C209        C290   1.542       .  S
C210        C258   1.478       .  S
C210        C238   1.539       .  S
C210        C248   1.542       .  S
C210        C283   1.546       .  S
O211       Ni217   1.909   1_655  S
O211        C232   1.264   1_655  A
O212       Ni595   1.937       .  S
O212        C221   1.273       .  A
O213       Ni217   1.886       .  S
O213       Ni235   1.906   1_545  S
O213        H236   0.964       .  S
C214        O231   1.284   1_565  A
C214        O223   1.279       .  A
C214        C260   1.475   1_565  S
O215       Ni234   1.911       .  S
O216       Ni594   1.891   1_455  S
O216        C218   1.267       .  A
Ni217       O220   1.916       .  S
Ni217       O582   1.894   1_455  S
C218        O228   1.274       .  A
C218        C241   1.483       .  S
O219       Ni235   1.933       .  S
O219        C225   1.285       .  A
O220        C225   1.281   1_545  A
C221        C323   1.484       .  S
O222       Ni577   1.894       .  S
O222        C224   1.263   1_545  A
O223       Ni234   1.911       .  S
C224        O230   1.268       .  A
C224        C273   1.461       .  S
C225        C251   1.485       .  S
O227       Ni415   1.924   1_556  S
O227       Ni589   1.906   1_565  S
O227       Ni234   1.875       .  S
O228       Ni229   1.940   1_565  S
Ni229       O233   1.937       .  S
Ni229       O591   1.934   1_455  S
Ni229       O587   1.903   1_445  S
O230       Ni595   1.929       .  S
O231       Ni589   1.940       .  S
C232        C355   1.488       .  S
Ni234       O576   1.885       .  S
Ni235       O572   1.937       .  S
Ni235       O590   1.934   1_455  S
Ni235       O407   1.921   1_455  S
C237        C238   1.416       .  A
C237        C242   1.408       .  A
C237        H243   1.081   1_565  S
C238        C239   1.406       .  A
C239        C240   1.383       .  A
C239        H244   1.082       .  S
C240        C241   1.403       .  A
C240        H245   1.083       .  S
C241        C242   1.407       .  A
C242        H246   1.083   1_565  S
C247        C248   1.409       .  A
C247        C252   1.389       .  A
C247        H253   1.083   1_565  S
C248        C249   1.415       .  A
C249        C250   1.404       .  A
C249        H254   1.081       .  S
C250        C251   1.405       .  A
C250        H255   1.083       .  S
C251        C252   1.405       .  A
C252        H256   1.083   1_565  S
C257        C258   1.205       .  T
C259        C260   1.400   1_565  A
C259        C264   1.391       .  A
C259        H265   1.084       .  S
C260        C261   1.403       .  A
C261        C262   1.402       .  A
C261        H266   1.083       .  S
C262        C263   1.414       .  A
C262        H267   1.083       .  S
C263        C264   1.415   1_545  A
C264        H268   1.080       .  S
C269        C270   1.415       .  A
C269        C274   1.398   1_545  A
C269        H275   1.083       .  S
C270        C271   1.413   1_545  A
C271        C272   1.395       .  A
C271        H276   1.080       .  S
C272        C273   1.398       .  A
C272        H277   1.084       .  S
C273        C274   1.399       .  A
C274        H278   1.083   1_565  S
C279        C280   1.408       .  A
C279        C284   1.394       .  A
C279        H285   1.083       .  S
C280        C281   1.399       .  A
C281        C282   1.401       .  A
C281        H286   1.083       .  S
C282        C283   1.420       .  A
C282        H287   1.080       .  S
C283        C284   1.407       .  A
C284        H288   1.083       .  S
C289        C290   1.409       .  A
C289        C294   1.393       .  A
C289        H295   1.082       .  S
C290        C291   1.418       .  A
C291        C292   1.401       .  A
C291        H296   1.081       .  S
C292        C293   1.400       .  A
C292        H297   1.083       .  S
C293        C294   1.402       .  A
C294        H298   1.083       .  S
C299        C300   1.405       .  A
C299        C304   1.404       .  A
C299        H305   1.083       .  S
C300        C301   1.405       .  A
C301        C302   1.387       .  A
C301        H306   1.083       .  S
C302        C303   1.409       .  A
C302        H307   1.084       .  S
C303        C304   1.415       .  A
C304        H308   1.081       .  S
C309        C310   1.417       .  A
C309        C314   1.408       .  A
C309        H315   1.082       .  S
C310        C311   1.406       .  A
C311        C312   1.384       .  A
C311        H316   1.082       .  S
C312        C313   1.402       .  A
C312        H317   1.083       .  S
C313        C314   1.406       .  A
C314        H318   1.083       .  S
C319        C320   1.420       .  A
C319        C324   1.403       .  A
C320        C321   1.407       .  A
C321        C682   1.396       .  A
C321        H686   1.083       .  S
C322        C681   1.397       .  A
C322        C683   1.408       .  A
C322        H327   1.083       .  S
C323        C682   1.407       .  A
C323        C324   1.401       .  A
H326        C681   1.083       .  S
C329        C690   1.206       .  T
C330        C689   1.206       .  T
C331        C332   1.408       .  A
C331        C336   1.388       .  A
C331        H337   1.083       .  S
C332        C333   1.415       .  A
C333        C334   1.408       .  A
C333        H338   1.081       .  S
C334        C335   1.405       .  A
C334        H339   1.083       .  S
C335        C336   1.404       .  A
C336        H340   1.083       .  S
C341        C342   1.415       .  A
C341        C346   1.408       .  A
C341        H347   1.080       .  S
C342        C343   1.410       .  A
C343        C344   1.387       .  A
C343        H348   1.084       .  S
C344        C345   1.404       .  A
C344        H349   1.083       .  S
C345        C346   1.407       .  A
C346        H350   1.083       .  S
C351        C352   1.421       .  A
C351        C356   1.404       .  A
C351        H357   1.080       .  S
C353        C354   1.394       .  A
C353        H358   1.083       .  S
C354        H719   1.083   1_455  S
C355        C356   1.400       .  A
C356        H360   1.083       .  S
H359        C714   1.083       .  S
C361        C509   1.482       .  S
C361        C692   1.540   1_554  S
C361        C522   1.543       .  S
C361        C532   1.550   1_554  S
C362        C510   1.484   1_655  S
C362        C663   1.548   1_554  S
C362        C490   1.544       .  S
C362        C500   1.553       .  S
O363       Ni369   1.908       .  S
O363        C384   1.264       .  A
O364       Ni387   1.936       .  S
O364        C373   1.275       .  A
O365       Ni369   1.876       .  S
O365       Ni387   1.896       .  S
O365       Ni381   1.920       .  S
O365        H388   0.966       .  S
C366        O383   1.285       .  A
C366        O375   1.281       .  A
C366        C480   1.483       .  S
O367       Ni386   1.907       .  S
O367        C373   1.263       .  A
O368       Ni386   1.885       .  S
O368        C370   1.264       .  A
Ni369       O372   1.914       .  S
Ni369       O374   1.890       .  S
C370        O380   1.279       .  A
C370        C515   1.489       .  S
O371       Ni387   1.939       .  S
O371        C377   1.287       .  A
O372        C377   1.282       .  A
C373        C473   1.479       .  S
O374        C376   1.265       .  A
O375       Ni386   1.912       .  S
C376        O382   1.274       .  A
C376        C493   1.484       .  S
C377        C525   1.484       .  S
H378        O379   0.967       .  S
O379       Ni387   1.923       .  S
O379       Ni381   1.899       .  S
O379       Ni386   1.873       .  S
O380       Ni381   1.956       .  S
Ni381       O385   1.942       .  S
Ni381       O383   1.937       .  S
O382       Ni387   1.946       .  S
C384        O385   1.278       .  A
C384        C460   1.485       .  S
C389        C437   1.484   1_545  S
C389        C443   1.543       .  S
C389        C450   1.541       .  S
C389        C470   1.546       .  S
C390        C438   1.484       .  S
C390        C418   1.547       .  S
C390        C428   1.543       .  S
C390        C463   1.552       .  S
O391       Ni397   1.906       .  S
O391        C412   1.264   1_554  A
O392        C401   1.279       .  A
O393       Ni397   1.872       .  S
O393       Ni415   1.901   1_545  S
O393       Ni589   1.917   1_554  S
O393        H416   0.966       .  S
C394        O411   1.286   1_565  A
C394        O403   1.279       .  A
C394        C440   1.483       .  S
O395       Ni414   1.909   1_455  S
O395        C581   1.264       .  A
O396        C398   1.267       .  A
Ni397       O400   1.903       .  S
C398        O408   1.278       .  A
C398        C421   1.490       .  S
O399       Ni415   1.949       .  S
O399        C405   1.289       .  A
O400        C405   1.280   1_545  A
C401        O575   1.265   1_554  A
C401        C503   1.489       .  S
O402        C404   1.265   1_545  A
O403       Ni414   1.904       .  S
C404        O410   1.273       .  A
C404        C453   1.478   1_565  S
C405        C431   1.486       .  S
H406        O587   0.967   1_554  S
O407       Ni414   1.877       .  S
O407        H586   0.967       .  S
O408       Ni409   1.953   1_565  S
Ni409       O413   1.938       .  S
Ni409       O573   1.923       .  S
C412        O593   1.276       .  A
C412        C535   1.484       .  S
O413        C592   1.275       .  A
C417        C418   1.417       .  A
C417        C422   1.411       .  A
C417        H423   1.081   1_565  S
C418        C419   1.407       .  A
C419        C420   1.388       .  A
C419        H424   1.083       .  S
C420        C421   1.406       .  A
C420        H425   1.083       .  S
C421        C422   1.406       .  A
C422        H426   1.083   1_565  S
C427        C428   1.407       .  A
C427        C432   1.384       .  A
C427        H433   1.084   1_565  S
C428        C429   1.416       .  A
C429        C430   1.408       .  A
C429        H434   1.081       .  S
C430        C431   1.406       .  A
C430        H435   1.083       .  S
C431        C432   1.406       .  A
C432        H436   1.083   1_565  S
C437        C438   1.209       .  T
C439        C440   1.405       .  A
C439        C444   1.387       .  A
C439        H445   1.083       .  S
C440        C441   1.405   1_565  A
C441        C442   1.405       .  A
C441        H446   1.083       .  S
C442        C443   1.416       .  A
C442        H447   1.081       .  S
C443        C444   1.409   1_545  A
C444        H448   1.083       .  S
C449        C450   1.415   1_565  A
C449        C454   1.408       .  A
C449        H455   1.082       .  S
C450        C451   1.409       .  A
C451        C452   1.386       .  A
C451        H456   1.082       .  S
C452        C453   1.401       .  A
C452        H457   1.084       .  S
C453        C454   1.405   1_545  A
C454        H458   1.083       .  S
C459        C460   1.409       .  A
C459        C464   1.397       .  A
C459        H465   1.083       .  S
C460        C461   1.399       .  A
C461        C462   1.404       .  A
C461        H466   1.083       .  S
C462        C463   1.421       .  A
C462        H467   1.080       .  S
C463        C464   1.408       .  A
C464        H468   1.083       .  S
C469        C470   1.406       .  A
C469        C474   1.393       .  A
C469        H475   1.083       .  S
C470        C471   1.421       .  A
C471        C472   1.402       .  A
C471        H476   1.080       .  S
C472        C473   1.399       .  A
C472        H477   1.083       .  S
C473        C474   1.407       .  A
C474        H478   1.083       .  S
C479        C480   1.405       .  A
C479        C484   1.403       .  A
C479        H485   1.083       .  S
C480        C481   1.404       .  A
C481        C482   1.390       .  A
C481        H486   1.083       .  S
C482        C483   1.411       .  A
C482        H487   1.083       .  S
C483        C542   1.543       .  S
C483        C484   1.413       .  A
C484        H488   1.081       .  S
C489        C490   1.417       .  A
C489        C494   1.411       .  A
C489        H495   1.081       .  S
C490        C491   1.408       .  A
C491        C492   1.386       .  A
C491        H496   1.082       .  S
C492        C493   1.403       .  A
C492        H497   1.083       .  S
C493        C494   1.406       .  A
C494        H498   1.083       .  S
C499        C500   1.422       .  A
C499        C504   1.405       .  A
C499        H685   1.080       .  S
C500        C501   1.407   1_654  A
C502        H507   1.083       .  S
C503        C504   1.400   1_455  A
C504        H688   1.083       .  S
H505        C679   1.081       .  S
H508        C684   1.083       .  S
C511        C512   1.406       .  A
C511        C516   1.389       .  A
C511        H517   1.083       .  S
C512        C541   1.544       .  S
C512        C513   1.417       .  A
C513        C514   1.409       .  A
C513        H518   1.081       .  S
C514        C515   1.405       .  A
C514        H519   1.083       .  S
C515        C516   1.408       .  A
C516        H520   1.083       .  S
C521        C522   1.413       .  A
C521        C526   1.403       .  A
C521        H527   1.080       .  S
C522        C523   1.412       .  A
C523        C524   1.391       .  A
C523        H528   1.084       .  S
C524        C525   1.405       .  A
C524        H529   1.083       .  S
C525        C526   1.405       .  A
C526        H530   1.083       .  S
C531        C532   1.422       .  A
C531        C536   1.402       .  A
C531        H537   1.080       .  S
C532        C713   1.407   1_556  A
C533        C712   1.408       .  A
C533        C534   1.398       .  A
C533        H538   1.083       .  S
C534        C715   1.409       .  A
C535        C714   1.408   1_556  A
C535        C536   1.399       .  A
C536        H540   1.083       .  S
C541        C689   1.480       .  S
C541        C702   1.547       .  S
C541        C712   1.552       .  S
C542        C690   1.479   1_655  S
C542        C670   1.542       .  S
C542        C680   1.548       .  S
O543       Ni549   1.910       .  S
O543        C564   1.265       .  A
O544       Ni567   1.926       .  S
O544        C553   1.273       .  A
O545       Ni549   1.875       .  S
O545       Ni567   1.901       .  S
O545       Ni561   1.927       .  S
O545        H568   0.965       .  S
C546        O563   1.288       .  A
C546        O555   1.280       .  A
C546        C660   1.491       .  S
O547       Ni566   1.913       .  S
O547        C553   1.266       .  A
O548       Ni566   1.894       .  S
O548        C550   1.266       .  A
Ni549       O552   1.912       .  S
Ni549       O554   1.889       .  S
C550        O560   1.272       .  A
C550        C695   1.479       .  S
O551       Ni567   1.950       .  S
O551        C557   1.286       .  A
O552        C557   1.280       .  A
C553        C653   1.472       .  S
O554        C556   1.266       .  A
O555       Ni566   1.911       .  S
C556        O562   1.275       .  A
C556        C673   1.487       .  S
C557        C705   1.492       .  S
H558        O559   0.967       .  S
O559       Ni567   1.924       .  S
O559       Ni561   1.901       .  S
O559       Ni566   1.880       .  S
O560       Ni561   1.937       .  S
Ni561       O565   1.940       .  S
Ni561       O563   1.950       .  S
O562       Ni567   1.947       .  S
C564        O565   1.275       .  A
C564        C640   1.484       .  S
C569        C617   1.474   1_545  S
C569        C623   1.545       .  S
C569        C630   1.543       .  S
C569        C650   1.541       .  S
C570        C618   1.472       .  S
C570        C598   1.535       .  S
C570        C608   1.543       .  S
C570        C643   1.549       .  S
O571       Ni577   1.909       .  S
O571        C592   1.264       .  A
O572        C581   1.274       .  A
O573       Ni577   1.891       .  S
O573       Ni595   1.905   1_545  S
O573        H596   0.964       .  S
C574        O591   1.283   1_565  A
C574        O583   1.279       .  A
C574        C620   1.472   1_565  S
O575       Ni594   1.909   1_455  S
O576        C578   1.265       .  A
Ni577       O580   1.920       .  S
C578        O588   1.273   1_565  A
C578        C601   1.478       .  S
O579       Ni595   1.929       .  S
O579        C585   1.285       .  A
O580        C585   1.282   1_545  A
C581        C683   1.484       .  S
O582        C584   1.263   1_545  A
O583       Ni594   1.910       .  S
C584        O590   1.270       .  A
C584        C633   1.464       .  S
C585        C611   1.485       .  S
O587       Ni594   1.873       .  S
O588       Ni589   1.938       .  S
Ni589       O593   1.939       .  S
C592        C715   1.485       .  S
C597        C598   1.417       .  A
C597        C602   1.407       .  A
C597        H603   1.081       .  S
C598        C599   1.404       .  A
C599        C600   1.381       .  A
C599        H604   1.083       .  S
C600        C601   1.403       .  A
C600        H605   1.083       .  S
C601        C602   1.405       .  A
C602        H606   1.083   1_565  S
C607        C608   1.412       .  A
C607        C612   1.391   1_565  A
C607        H613   1.084   1_565  S
C608        C609   1.412       .  A
C609        C610   1.402       .  A
C609        H614   1.080       .  S
C610        C611   1.405       .  A
C610        H615   1.083       .  S
C611        C612   1.405   1_565  A
C612        H616   1.083       .  S
C617        C618   1.202       .  T
C619        C620   1.400   1_565  A
C619        C624   1.391       .  A
C619        H625   1.084       .  S
C620        C621   1.402       .  A
C621        C622   1.400       .  A
C621        H626   1.083       .  S
C622        C623   1.413       .  A
C622        H627   1.083       .  S
C623        C624   1.416   1_545  A
C624        H628   1.080       .  S
C629        C630   1.416       .  A
C629        C634   1.399   1_545  A
C629        H635   1.083       .  S
C630        C631   1.412   1_545  A
C631        C632   1.396       .  A
C631        H636   1.080       .  S
C632        C633   1.399       .  A
C632        H637   1.084       .  S
C633        C634   1.398       .  A
C634        H638   1.083   1_565  S
C639        C640   1.407       .  A
C639        C644   1.395       .  A
C639        H645   1.083       .  S
C640        C641   1.400       .  A
C641        C642   1.404       .  A
C641        H646   1.083       .  S
C642        C643   1.421       .  A
C642        H647   1.080       .  S
C643        C644   1.407       .  A
C644        H648   1.083       .  S
C649        C650   1.409       .  A
C649        C654   1.393       .  A
C649        H655   1.082       .  S
C650        C651   1.417       .  A
C651        C652   1.399       .  A
C651        H656   1.081       .  S
C652        C653   1.399       .  A
C652        H657   1.083       .  S
C653        C654   1.403       .  A
C654        H658   1.083       .  S
C659        C660   1.406       .  A
C659        C664   1.407       .  A
C659        H665   1.083       .  S
C660        C661   1.407       .  A
C661        C662   1.391       .  A
C661        H666   1.083       .  S
C662        C663   1.411       .  A
C662        H667   1.083       .  S
C663        C664   1.415       .  A
C664        H668   1.081       .  S
C669        C670   1.416       .  A
C669        C674   1.409       .  A
C669        H675   1.081       .  S
C670        C671   1.407       .  A
C671        C672   1.387       .  A
C671        H676   1.083       .  S
C672        C673   1.405       .  A
C672        H677   1.083       .  S
C673        C674   1.406       .  A
C674        H678   1.083       .  S
C679        C680   1.419       .  A
C679        C684   1.402       .  A
C680        C681   1.408   1_655  A
C682        H687   1.083       .  S
C683        C684   1.401   1_455  A
C691        C692   1.409       .  A
C691        C696   1.387       .  A
C691        H697   1.082       .  S
C692        C693   1.415       .  A
C693        C694   1.407       .  A
C693        H698   1.082       .  S
C694        C695   1.405       .  A
C694        H699   1.083       .  S
C695        C696   1.402       .  A
C696        H700   1.084       .  S
C701        C702   1.416       .  A
C701        C706   1.412       .  A
C701        H707   1.081       .  S
C702        C703   1.409       .  A
C703        C704   1.387       .  A
C703        H708   1.084       .  S
C704        C705   1.405       .  A
C704        H709   1.083       .  S
C705        C706   1.408       .  A
C706        H710   1.083       .  S
C711        C712   1.421       .  A
C711        C716   1.402       .  A
C711        H717   1.080       .  S
C713        C714   1.396       .  A
C713        H718   1.083       .  S
C715        C716   1.399       .  A
C716        H720   1.083       .  S
