geometry optimzed in LAMMPS
_audit_creation_date              2020-11-30 
_audit_creation_method            'lammps2cif' 
_symmetry_space_group_name_H-M    'P1' 
_symmetry_Int_Tables_number       1 
_symmetry_cell_setting            triclinic 
loop_ 
_symmetry_equiv_pos_as_xyz 
  x,y,z 
_cell_length_a                    29.65222634 
_cell_length_b                    44.445796042551684 
_cell_length_c                    27.035013137958256 
_cell_angle_alpha                 90.18606800483705 
_cell_angle_beta                  83.45262291392228 
_cell_angle_gamma                 90.26683779726358 
loop_ 
_atom_site_label 
_atom_site_type_symbol 
_atom_site_fract_x 
_atom_site_fract_y 
_atom_site_fract_z 
_atom_site_charge 
C1          C  0.07455503  0.15891159  0.00768308     0.87800
C2          C  0.09946549  0.17039814  0.05085206    -0.52400
C3          C  0.10796151  0.20056736  0.04996766     0.10800
C4          C  0.09686195  0.21115399  0.49780566     0.21700
C5          C  0.03119117  0.17797246  0.01054370    -0.53100
C6          C  0.03961492  0.20821862  0.00987831     0.10900
C7          C  0.10198200  0.16064817  0.46255357    -0.52700
C8          C  0.11599327  0.18975673  0.45537503     0.11400
H9          H  0.10904051  0.15565312  0.07972791     0.16000
H10         H  0.10787481  0.23496368  0.49305367     0.01700
H11         H  0.99717190  0.16846959  0.01381877     0.16300
H12         H  0.11414070  0.14255186  0.43745607     0.16000
C13         C  0.42919927  0.33005802  0.99978641     0.87800
C14         C  0.39417555  0.32556938  0.04536714    -0.52400
C15         C  0.38012156  0.29645882  0.05258619     0.10800
C16         C  0.40233214  0.27444618  0.01294972     0.21700
C17         C  0.46786732  0.30813336  0.00659973    -0.53100
C18         C  0.45366149  0.27901229  0.01312794     0.10900
C19         C  0.40584373  0.31698262  0.46010869    -0.52700
C20         C  0.39133212  0.28796154  0.46774208     0.11400
H21         H  0.38060685  0.34397939  0.06899800     0.16000
H22         H  0.39109796  0.25068394  0.01797948     0.01700
H23         H  0.50327074  0.31488188  0.00485266     0.16300
H24         H  0.40072388  0.32980523  0.42715639     0.16000
O25         O  0.23196371  0.31509394  0.21653841    -0.79500
O26         O  0.28029973  0.17974405  0.21523114    -0.64200
O27         O  0.21770142  0.25411269  0.24161232    -1.10800
C28         C  0.31753063  0.26678575  0.36438751     1.07300
O29         O  0.27943130  0.16908601  0.29546171    -0.77400
O30         O  0.23649252  0.20778378  0.36068020    -0.65000
Ni31       Ni  0.20559942  0.28021755  0.18883033     1.34900
C32         C  0.20805379  0.22914273  0.36578192     0.86100
O33         O  0.20919031  0.20477255  0.17845712    -0.78000
O34         O  0.17785182  0.24799799  0.15612142    -0.88300
C35         C  0.28588089  0.16138204  0.24985837     0.85700
O36         O  0.26120791  0.27501416  0.14758566    -0.66500
O37         O  0.31713015  0.23813449  0.36675668    -0.85700
C38         C  0.29304236  0.25596702  0.14570781     0.86500
C39         C  0.18279981  0.21955263  0.15345116     1.08100
H40         H  0.31704905  0.23552640  0.25718245     0.39900
O41         O  0.28730001  0.23099311  0.27401003    -1.08400
O42         O  0.21390930  0.25399063  0.34253448    -0.65100
Ni43       Ni  0.25678484  0.26843636  0.28804677     1.26300
O44         O  0.29203197  0.23300390  0.17371238    -0.65300
O45         O  0.29728513  0.28162426  0.33352018    -0.77600
C46         C  0.22533480  0.32434204  0.26118959     0.85900
O47         O  0.22676570  0.30638017  0.29727391    -0.64800
Ni48       Ni  0.29670091  0.20521249  0.32826167     1.27400
Ni49       Ni  0.24886592  0.21714279  0.22618227     1.26100
H50         H  0.18850859  0.24908932  0.25938161     0.40400
C51         C  0.33298543  0.08062851  0.26091532     0.87800
C52         C  0.36792021  0.07709949  0.21489043    -0.52400
C53         C  0.38314567  0.04832558  0.20677541     0.10800
C54         C  0.36209832  0.02571110  0.24610994     0.21700
C55         C  0.29519133  0.05781540  0.25398798    -0.53100
C56         C  0.31052701  0.02906471  0.24676580     0.10900
C57         C  0.35685654  0.06791303  0.30388712    -0.52700
C58         C  0.37246621  0.03920252  0.29598600     0.11400
H59         H  0.38050553  0.09589236  0.19160391     0.16000
H60         H  0.36626101  0.50053075  0.24929053     0.01700
H61         H  0.25946007  0.06366017  0.25675337     0.16300
H62         H  0.36051309  0.08058773  0.33756205     0.16000
C63         C  0.18865529  0.40659613  0.24373339     0.87800
C64         C  0.16417124  0.41919285  0.20114336    -0.52400
C65         C  0.14977688  0.44822886  0.20847077     0.10800
C66         C  0.16226877  0.46216388  0.25725768     0.21700
C67         C  0.22775954  0.42870954  0.24865537    -0.53100
C68         C  0.21389703  0.45782543  0.25518185     0.10900
C69         C  0.15501255  0.41129469  0.29038798    -0.52700
C70         C  0.14117936  0.44033098  0.29780946     0.11400
H71         H  0.15869880  0.40608845  0.16841726     0.16000
H72         H  0.15123595  0.48590214  0.26252014     0.01700
H73         H  0.26320272  0.42210421  0.24536111     0.16300
H74         H  0.14175517  0.39296850  0.31438071     0.16000
O75         O  0.03511834  0.06729923  0.03594399    -0.79500
O76         O  0.47639018  0.43021439  0.04939467    -0.64200
O77         O  0.04363333  0.00532202  0.01487880    -1.10800
C78         C  0.44284143  0.01695629  0.40144538     1.07300
O79         O  0.47970312  0.41946730  0.47053562    -0.77400
O80         O  0.01927508  0.46139321  0.38696157    -0.65000
Ni81       Ni  0.05583361  0.03195129  0.06756709     1.34900
C82         C  0.05185330  0.47971530  0.38890900     0.86100
O83         O  0.04728481  0.45360289  0.08149460    -0.78000
O84         O  0.07416633  0.49716125  0.10885035    -0.88300
C85         C  0.47155790  0.41182801  0.01439004     0.85700
O86         O  0.50179181  0.02904767  0.10867128    -0.66500
O87         O  0.43249449  0.48824032  0.40873370    -0.85700
C88         C  0.47111850  0.00893574  0.11263360     0.86500
C89         C  0.07186460  0.46851485  0.10857109     1.08100
H90         H  0.43919805  0.48616047  0.00896817     0.39900
O91         O  0.46981188  0.48068784  0.49687988    -1.08400
O92         O  0.05100739  0.50112100  0.42014337    -0.65100
Ni93       Ni  0.01032952  0.01551429  0.46332098     1.26300
O94         O  0.46551441  0.48329319  0.09218302    -0.65300
O95         O  0.46604232  0.03116770  0.43070634    -0.77600
C96         C  0.04005950  0.07523872  0.99045045     0.85900
O97         O  0.03926438  0.05381621  0.45744106    -0.63600
Ni98       Ni  0.45736197  0.45536501  0.44249021     1.27400
Ni99       Ni  0.00586654  0.46623146  0.03636491     1.26100
H100        H  0.06585484  0.49868833  0.00233865     0.40400
C101        C  0.10365139  0.44749521  0.33672439    -0.15100
C102        C  0.09273944  0.47534833  0.35320737    -0.30300
H103        H  0.08350357  0.42855584  0.35235194     0.13900
H104        H  0.11405391  0.49454565  0.34160532     0.14500
C105        C  0.09909279  0.45144908  0.14127239    -0.15100
C106        C  0.12340672  0.46504189  0.17420714    -0.30300
H107        H  0.09797144  0.42709041  0.13889119     0.13900
H108        H  0.12235787  0.48936138  0.17814956     0.14500
C109        C  0.28026103  0.00363737  0.24583063    -0.11900
C110        C  0.24552297  0.48261068  0.25517532    -0.13500
C111        C  0.41752725  0.03477039  0.36795829    -0.15100
C112        C  0.39694408  0.02190387  0.33130538    -0.30300
H113        H  0.41733183  0.05901701  0.37268971     0.13900
H114        H  0.39953802  0.99776492  0.32535744     0.14500
C115        C  0.43084728  0.01388494  0.14934713    -0.15100
C116        C  0.42066517  0.04162139  0.16729935    -0.30300
H117        H  0.40935527  0.99478900  0.16106074     0.13900
H118        H  0.44092496  0.06066793  0.15239870     0.14500
C119        C  0.21692666  0.35667602  0.27060948    -0.15100
C120        C  0.20282418  0.37427889  0.23498692    -0.30300
H121        H  0.21932788  0.36569035  0.30761708     0.13900
H122        H  0.19852557  0.36445166  0.19893705     0.14500
C123        C  0.29908625  0.12989750  0.23749204    -0.15100
C124        C  0.31668851  0.11247740  0.27115324    -0.30300
H125        H  0.29652389  0.12139065  0.20019980     0.13900
H126        H  0.32078593  0.12191286  0.30752665     0.14500
C127        C  0.36557599  0.27072105  0.43316032    -0.15100
C128        C  0.34280117  0.28401481  0.39892214    -0.30300
H129        H  0.36436290  0.24642110  0.43722608     0.13900
H130        H  0.34208363  0.30834126  0.39608028     0.14500
C131        C  0.34254200  0.28897226  0.09133886    -0.15100
C132        C  0.33318392  0.26112943  0.10904622    -0.30300
H133        H  0.32157451  0.30764592  0.10621041     0.13900
H134        H  0.35539365  0.24240504  0.09769384     0.14500
C135        C  0.44399344  0.36230867  0.99086720    -0.15100
C136        C  0.45989002  0.38000042  0.02564065    -0.30300
H137        H  0.43993186  0.37181244  0.95464824     0.13900
H138        H  0.46790414  0.36998883  0.56283799     0.14500
C139        C  0.48471613  0.25433234  0.01575821    -0.11900
C140        C  0.00459546  0.23073049  0.01419396    -0.13500
C141        C  0.15253476  0.19698232  0.41490969    -0.15100
C142        C  0.16670849  0.22487293  0.40141493    -0.30300
H143        H  0.16986502  0.17787773  0.39619168     0.13900
H144        H  0.14862816  0.24452206  0.41692535     0.14500
C145        C  0.13231968  0.21673120  0.08701623    -0.15100
C146        C  0.15703828  0.20272660  0.11891100    -0.30300
H147        H  0.13111550  0.24114501  0.08644012     0.13900
H148        H  0.16041105  0.17845976  0.11850338     0.14500
C149        C  0.04890050  0.10754602  0.97883344    -0.15100
C150        C  0.06650776  0.12527075  0.01234380    -0.30300
H151        H  0.04145945  0.11666879  0.94346251     0.13900
H152        H  0.06110742  0.11368411  0.55646484     0.14500
C153        C  0.07042891  0.15539507  0.51071907     0.87800
C154        C  0.09713129  0.16758151  0.55187369    -0.52400
C155        C  0.11146797  0.19666655  0.54502593     0.10800
C156        C  0.09002494  0.21672705  0.00609384     0.21700
C157        C  0.03106928  0.17754040  0.50910463    -0.53100
C158        C  0.04491226  0.20680463  0.50296999     0.10900
C159        C  0.10418462  0.16969891  0.96050884    -0.52700
C160        C  0.11224927  0.20023435  0.95968979     0.11400
H161        H  0.10351812  0.15419342  0.58379334     0.16000
H162        H  0.09650106  0.24138853  0.00555189     0.01700
H163        H  0.99557490  0.17088934  0.51506751     0.16300
H164        H  0.11790192  0.15452617  0.93108769     0.16000
C165        C  0.43056955  0.32992400  0.50233625     0.87800
C166        C  0.39711579  0.32553990  0.54931568    -0.52400
C167        C  0.38294293  0.29648648  0.55706754     0.10800
C168        C  0.40386774  0.27443066  0.51657655     0.21700
C169        C  0.46953219  0.30805692  0.50721323    -0.53100
C170        C  0.45556031  0.27900384  0.51417202     0.10900
C171        C  0.40615771  0.31698094  0.95622577    -0.52700
C172        C  0.39178034  0.28790760  0.96327702     0.11400
H173        H  0.38432707  0.34403096  0.57322800     0.16000
H174        H  0.39287640  0.25065104  0.52182274     0.01700
H175        H  0.50505034  0.31474348  0.50322841     0.16300
H176        H  0.40190485  0.32961348  0.92278315     0.16000
O177        O  0.22231448  0.31120352  0.72528389    -0.79500
O178        O  0.28180221  0.17719030  0.71043305    -0.64200
O179        O  0.21452190  0.24914532  0.74044460    -1.10800
C180        C  0.31897684  0.26481095  0.86012846     1.07300
O181        O  0.28879804  0.16753343  0.78951122    -0.77400
O182        O  0.25459069  0.20292192  0.86198783    -0.65000
Ni183      Ni  0.20456545  0.27664789  0.68901775     1.34900
C184        C  0.21723267  0.21685102  0.86549577     0.86100
O185        O  0.20802856  0.20049453  0.67755499    -0.78000
O186        O  0.18497547  0.24457303  0.64827080    -0.88300
C187        C  0.28937676  0.15907621  0.74458195     0.85700
O188        O  0.26426305  0.27628218  0.65501379    -0.66500
O189        O  0.33157491  0.23771789  0.85217212    -0.85700
C190        C  0.29356525  0.25563376  0.64763904     0.86500
C191        C  0.18635717  0.21584152  0.64830376     1.08100
H192        H  0.31447890  0.23760178  0.75083800     0.39900
O193        O  0.28748451  0.22944226  0.76947492    -1.08400
O194        O  0.21047356  0.24041716  0.84020304    -0.65100
Ni195      Ni  0.24988537  0.26310948  0.79042959     1.26300
O196        O  0.28919796  0.23021832  0.66898891    -0.65300
O197        O  0.28693185  0.27698493  0.83984171    -0.77600
C198        C  0.21094664  0.31761299  0.77080857     0.85900
O199        O  0.21227393  0.29781469  0.80455549    -0.64800
Ni200      Ni  0.30895078  0.20400694  0.81812281     1.27400
Ni201      Ni  0.24859599  0.21372770  0.72325767     1.26100
H202        H  0.18492701  0.24304857  0.75598208     0.40400
C203        C  0.32844598  0.07695446  0.75772860     0.87800
C204        C  0.36179522  0.07226895  0.71084826    -0.52400
C205        C  0.37637388  0.04331674  0.70374208     0.10800
C206        C  0.35568154  0.02153003  0.74487212     0.21700
C207        C  0.28960255  0.05460773  0.75353499    -0.53100
C208        C  0.30374935  0.02553970  0.74736958     0.10900
C209        C  0.35335186  0.06482942  0.80019969    -0.52700
C210        C  0.36827110  0.03596094  0.79334670     0.11400
H211        H  0.37446672  0.09061787  0.68659343     0.16000
H212        H  0.35986371  0.49762199  0.74448166     0.01700
H213        H  0.25406439  0.06102358  0.75726120     0.16300
H214        H  0.35853606  0.07815704  0.83277190     0.16000
C215        C  0.18294846  0.40269141  0.75590770     0.87800
C216        C  0.15565136  0.41274512  0.71356634    -0.52400
C217        C  0.14081924  0.44192142  0.71779238     0.10800
C218        C  0.15467832  0.45822508  0.76420013     0.21700
C219        C  0.22136248  0.42595465  0.75572693    -0.53100
C220        C  0.20666228  0.45495937  0.75985957     0.10900
C221        C  0.15114256  0.40896542  0.80356857    -0.52700
C222        C  0.13604878  0.43785549  0.80809827     0.11400
H223        H  0.14968015  0.39809240  0.68279033     0.16000
H224        H  0.14295058  0.48190264  0.76743170     0.01700
H225        H  0.25710567  0.42002300  0.75144153     0.16300
H226        H  0.13871487  0.39184181  0.83021708     0.16000
O227        O  0.03551196  0.06222074  0.53867496    -0.79500
O228        O  0.48060818  0.42858259  0.55082061    -0.64200
O229        O  0.04733225  0.00088389  0.51160998    -1.10800
C230        C  0.44386458  0.01792070  0.89646206     1.07300
O231        O  0.47774029  0.41984998  0.96909429    -0.77400
O232        O  0.01665096  0.45581650  0.90402908    -0.65000
Ni233      Ni  0.05475631  0.02554863  0.56789532     1.34900
C234        C  0.04450805  0.47757073  0.89737004     0.86100
O235        O  0.05018790  0.44769634  0.57759916    -0.78000
O236        O  0.07104270  0.49060091  0.61290858    -0.88300
C237        C  0.47493194  0.41077205  0.51550508     0.85700
O238        O  0.49804109  0.02561684  0.60904778    -0.66500
O239        O  0.43607399  0.48787111  0.90040144    -0.85700
C240        C  0.46892810  0.00451119  0.61397881     0.86500
C241        C  0.07055939  0.46194229  0.60960194     1.08100
H242        H  0.44094634  0.48494257  0.51587925     0.39900
O243        O  0.46868224  0.48159246  0.99155925    -1.08400
O244        O  0.03844345  0.50274099  0.91969552    -0.65100
Ni245      Ni  0.00510505  0.01862049  0.96705331     1.26300
O246        O  0.47043702  0.47988328  0.59745235    -0.65300
O247        O  0.46619514  0.03321028  0.92540272    -0.77600
C248        C  0.03976547  0.07160933  0.49398573     0.85900
O249        O  0.03591836  0.05647360  0.95574431    -0.63600
Ni250      Ni  0.45820865  0.45545282  0.93769484     1.27400
Ni251      Ni  0.01151026  0.46242137  0.53075686     1.26100
H252        H  0.07323416  0.49563906  0.50385755     0.40400
C253        C  0.09909709  0.44539364  0.84775144    -0.15100
C254        C  0.08537847  0.47332146  0.86112358    -0.30300
H255        H  0.08157822  0.42638415  0.86666161     0.13900
H256        H  0.10366495  0.49289698  0.84538546     0.14500
C257        C  0.09519510  0.44436170  0.64465836    -0.15100
C258        C  0.11505166  0.45781282  0.68155253    -0.30300
H259        H  0.09664779  0.42012218  0.64004023     0.13900
H260        H  0.11189078  0.48200314  0.68640349     0.14500
C261        C  0.27187464  0.00074384  0.74861416    -0.11900
C262        C  0.23788841  0.48021099  0.75667729    -0.13500
C263        C  0.41784404  0.03428348  0.86180849    -0.15100
C264        C  0.39483636  0.01993599  0.82832777    -0.30300
H265        H  0.41835648  0.05865770  0.86366114     0.13900
H266        H  0.39649665  0.99559471  0.82512142     0.14500
C267        C  0.42791232  0.00873104  0.65006130    -0.15100
C268        C  0.41423130  0.03651296  0.66454537    -0.30300
H269        H  0.40897243  0.98904936  0.66428021     0.13900
H270        H  0.43235023  0.05575989  0.64712365     0.14500
C271        C  0.19734587  0.34891422  0.78376827    -0.15100
C272        C  0.20035714  0.37073036  0.74859708    -0.30300
H273        H  0.18441555  0.35358721  0.82207142     0.13900
H274        H  0.21650805  0.36552942  0.71144550     0.14500
C275        C  0.29830032  0.12699511  0.73291339    -0.15100
C276        C  0.31413251  0.10911536  0.76707504    -0.30300
H277        H  0.29417053  0.11837444  0.69605129     0.13900
H278        H  0.31943817  0.11861488  0.80307000     0.14500
C279        C  0.36834962  0.27037318  0.92707059    -0.15100
C280        C  0.34276523  0.28312334  0.89481742    -0.30300
H281        H  0.37047366  0.24602233  0.92901083     0.13900
H282        H  0.33758564  0.30729612  0.89524436     0.14500
C283        C  0.34563319  0.28926670  0.59652843    -0.15100
C284        C  0.33425099  0.26122424  0.61186312    -0.30300
H285        H  0.32607106  0.30813204  0.61306755     0.13900
H286        H  0.35478249  0.24215446  0.59822501     0.14500
C287        C  0.44540388  0.36195764  0.49265506    -0.15100
C288        C  0.46366276  0.37901835  0.52636473    -0.30300
H289        H  0.43960967  0.37178198  0.45715582     0.13900
H290        H  0.46236342  0.37136385  0.06277043     0.14500
C291        C  0.48736751  0.25453350  0.51280851    -0.11900
C292        C  0.01332541  0.23169064  0.50844417    -0.13500
C293        C  0.14304431  0.21614194  0.92070335    -0.15100
C294        C  0.18108190  0.20281275  0.90018663    -0.30300
H295        H  0.13709197  0.23968607  0.91317400     0.13900
H296        H  0.18803852  0.18009123  0.91194374     0.14500
C297        C  0.13806762  0.21320090  0.57964010    -0.15100
C298        C  0.16133485  0.19923495  0.61284503    -0.30300
H299        H  0.13895286  0.23757423  0.57692776     0.13900
H300        H  0.16250202  0.17487528  0.61424822     0.14500
C301        C  0.04490834  0.10423643  0.48456766    -0.15100
C302        C  0.05679080  0.12292819  0.52012651    -0.30300
H303        H  0.04235119  0.11263085  0.44730568     0.13900
H304        H  0.07557336  0.11475281  0.04608355     0.14500
C305        C  0.07414510  0.65566712  0.01045612     0.87800
C306        C  0.10030092  0.66804589  0.05206846    -0.52400
C307        C  0.11542134  0.69691355  0.04454774     0.10800
C308        C  0.10361767  0.71054949  0.49752837     0.21700
C309        C  0.03562122  0.67820766  0.00706446    -0.53100
C310        C  0.05042559  0.70719206  0.00040176     0.10900
C311        C  0.10953724  0.65961056  0.46404222    -0.52700
C312        C  0.12314103  0.68879741  0.45592631     0.11400
H313        H  0.10577555  0.65505818  0.08475463     0.16000
H314        H  0.11447459  0.73435114  0.49195653     0.01700
H315        H  0.99990170  0.67204989  0.01232389     0.16300
H316        H  0.12178573  0.64129130  0.43947228     0.16000
C317        C  0.44071858  0.82922200  0.99765345     0.87800
C318        C  0.40754428  0.82426156  0.04472951    -0.52400
C319        C  0.39390980  0.79504524  0.05231553     0.10800
C320        C  0.41520184  0.77329309  0.01153183     0.21700
C321        C  0.48024610  0.80758262  0.00202354    -0.53100
C322        C  0.46692996  0.77827315  0.00869410     0.10900
C323        C  0.41267052  0.81513316  0.45354019    -0.52700
C324        C  0.39801175  0.78617746  0.46134942     0.11400
H325        H  0.39415686  0.84258377  0.06865884     0.16000
H326        H  0.40459499  0.74943500  0.01690161     0.01700
H327        H  0.51560337  0.81461876  0.99802794     0.16300
H328        H  0.40764458  0.82785871  0.42044956     0.16000
O329        O  0.23602132  0.81466725  0.21027813    -0.79500
O330        O  0.28541438  0.67873336  0.21272707    -0.64200
O331        O  0.22303181  0.75343019  0.23492762    -1.10800
C332        C  0.32243268  0.76550346  0.35964461     1.07300
O333        O  0.27728053  0.66936954  0.29345869    -0.77400
O334        O  0.24185982  0.70891783  0.36044096    -0.65000
Ni335      Ni  0.21325034  0.77908384  0.18071247     1.34900
C336        C  0.21149284  0.72900907  0.36253691     0.86100
O337        O  0.21597331  0.70312838  0.17316527    -0.78000
O338        O  0.18835517  0.74629440  0.14603514    -0.88300
C339        C  0.28668977  0.66068942  0.24871882     0.85700
O340        O  0.27134634  0.77466507  0.14358873    -0.66500
O341        O  0.32471654  0.73685921  0.35987283    -0.85700
C342        C  0.30232084  0.75499210  0.14233288     0.86500
C343        C  0.19157053  0.71769519  0.14578568     1.08100
H344        H  0.32098980  0.73513336  0.25414406     0.39900
O345        O  0.29105070  0.73039531  0.27031169    -1.08400
O346        O  0.21529296  0.75280577  0.33611845    -0.65100
Ni347      Ni  0.26015533  0.76765860  0.28358222     1.26300
O348        O  0.29905858  0.73152973  0.16943039    -0.65300
O349        O  0.29894390  0.78039117  0.33162888    -0.77600
C350        C  0.22923084  0.82381476  0.25505756     0.85900
O351        O  0.23016098  0.80581041  0.29135516    -0.64800
Ni352      Ni  0.30011435  0.70442016  0.32423223     1.27400
Ni353      Ni  0.25433071  0.71626189  0.22136156     1.26100
H354        H  0.19326725  0.74855250  0.25138831     0.40400
C355        C  0.32757230  0.57963198  0.26667338     0.87800
C356        C  0.36275744  0.57513360  0.22130578    -0.52400
C357        C  0.37702008  0.54615867  0.21430308     0.10800
C358        C  0.35482906  0.52421543  0.25416038     0.21700
C359        C  0.28906174  0.55733453  0.26011503    -0.53100
C360        C  0.30335694  0.52828955  0.25414314     0.10900
C361        C  0.35039576  0.56720730  0.31047364    -0.52700
C362        C  0.36503616  0.53818950  0.30385051     0.11400
H363        H  0.37626351  0.59350164  0.19755273     0.16000
H364        H  0.37418691  0.00221923  0.24046086     0.01700
H365        H  0.25358537  0.56375457  0.26228752     0.16300
H366        H  0.35410806  0.58034818  0.34364528     0.16000
C367        C  0.19551515  0.90705879  0.23672590     0.87800
C368        C  0.17064632  0.91996593  0.19444929    -0.52400
C369        C  0.15728061  0.94926794  0.20175728     0.10800
C370        C  0.17091329  0.96305036  0.25008304     0.21700
C371        C  0.23539957  0.92872012  0.24073739    -0.53100
C372        C  0.22238956  0.95802830  0.24717410     0.10900
C373        C  0.16265892  0.91238564  0.28380546    -0.52700
C374        C  0.14970730  0.94161910  0.29109755     0.11400
H375        H  0.16410113  0.90692043  0.16200815     0.16000
H376        H  0.16071644  0.98694728  0.25533143     0.01700
H377        H  0.27065895  0.92167992  0.23704789     0.16300
H378        H  0.14906287  0.89429573  0.30811391     0.16000
O379        O  0.02751319  0.56532553  0.04418602    -0.79500
O380        O  0.48373431  0.93150946  0.04428427    -0.64200
O381        O  0.03684360  0.50346928  0.02062545    -1.10800
C382        C  0.43417449  0.51685701  0.41057361     1.07300
O383        O  0.48239250  0.91859787  0.46391993    -0.77400
O384        O  0.02699453  0.96216165  0.37715831    -0.65000
Ni385      Ni  0.04940929  0.52966077  0.07380611     1.34900
C386        C  0.05860703  0.98112024  0.37981832     0.86100
O387        O  0.05140161  0.95622586  0.07847442    -0.78000
O388        O  0.07992218  0.99964170  0.10418167    -0.88300
C389        C  0.47861224  0.91276015  0.00985392     0.85700
O390        O  0.49526105  0.52644515  0.11650916    -0.66500
O391        O  0.44053753  0.98834427  0.39948294    -0.85700
C392        C  0.46405242  0.50669303  0.11951230     0.86500
C393        C  0.07668892  0.97099968  0.10486746     1.08100
H394        H  0.44654544  0.98794529  0.00431658     0.39900
O395        O  0.47496491  0.98015427  0.48927864    -1.08400
O396        O  0.05625745  0.00253694  0.41120391    -0.65100
Ni397      Ni  0.00641392  0.51542591  0.47227631     1.26300
O398        O  0.47355173  0.98480208  0.08700180    -0.65300
O399        O  0.45763190  0.53143236  0.43914857    -0.77600
C400        C  0.03202481  0.57354976  0.99891442     0.85900
O401        O  0.03757030  0.55301430  0.46478755    -0.63600
Ni402      Ni  0.46284999  0.95498399  0.43461195     1.27400
Ni403      Ni  0.01168660  0.96856401  0.03142308     1.26100
H404        H  0.07291164  0.99999127  0.99757365     0.40400
C405        C  0.11246544  0.94918853  0.33013038    -0.15100
C406        C  0.10016483  0.97717921  0.34487933    -0.30300
H407        H  0.09311520  0.93024699  0.34700031     0.13900
H408        H  0.12034595  0.99665987  0.33210961     0.14500
C409        C  0.10377299  0.95355941  0.13744979    -0.15100
C410        C  0.13092803  0.96663590  0.16801712    -0.30300
H411        H  0.10064391  0.92922420  0.13656975     0.13900
H412        H  0.13221198  0.99100690  0.17059749     0.14500
C413        C  0.27203484  0.50335326  0.25392459    -0.11900
C414        C  0.25441290  0.98256155  0.24683895    -0.13500
C415        C  0.40820825  0.53426050  0.37731218    -0.15100
C416        C  0.38864474  0.52113139  0.34014639    -0.30300
H417        H  0.40747560  0.55849106  0.38209544     0.13900
H418        H  0.39180705  0.49700947  0.33430664     0.14500
C419        C  0.42417434  0.51137454  0.15686981    -0.15100
C420        C  0.41470802  0.53902058  0.17540127    -0.30300
H421        H  0.40223769  0.49241296  0.16818620     0.13900
H422        H  0.43544620  0.55792640  0.16075858     0.14500
C423        C  0.22143298  0.85634947  0.26433689    -0.15100
C424        C  0.20867625  0.87439563  0.22833894    -0.30300
H425        H  0.22354507  0.86523542  0.30147890     0.13900
H426        H  0.20462440  0.86473101  0.19212081     0.14500
C427        C  0.29791232  0.62880365  0.23902140    -0.15100
C428        C  0.31258247  0.61175216  0.27491234    -0.30300
H429        H  0.29662010  0.61966802  0.20188881     0.13900
H430        H  0.31581731  0.62176751  0.31109473     0.14500
C431        C  0.37210170  0.76909586  0.42683051    -0.15100
C432        C  0.34853826  0.78261295  0.39346706    -0.30300
H433        H  0.37107755  0.74477139  0.43055356     0.13900
H434        H  0.34736595  0.80695709  0.39132069     0.14500
C435        C  0.35579366  0.78770881  0.09106443    -0.15100
C436        C  0.34395990  0.75980232  0.10717528    -0.30300
H437        H  0.33581303  0.80664169  0.10667932     0.13900
H438        H  0.36485952  0.74059358  0.09503587     0.14500
C439        C  0.45436083  0.86178932  0.98781951    -0.15100
C440        C  0.46900363  0.88060375  0.02198560    -0.30300
H441        H  0.44988980  0.87068544  0.95130398     0.13900
H442        H  0.47152791  0.86944104  0.55692901     0.14500
C443        C  0.49911735  0.75380929  0.00782167    -0.11900
C444        C  0.01967005  0.73238482  0.00453742    -0.13500
C445        C  0.15917982  0.69624375  0.41498143    -0.15100
C446        C  0.17029014  0.72420252  0.39837580    -0.30300
H447        H  0.17858995  0.67731571  0.39842714     0.13900
H448        H  0.14984532  0.74342446  0.41151907     0.14500
C449        C  0.14152812  0.71379823  0.07911719    -0.15100
C450        C  0.16554734  0.70031972  0.11208570    -0.30300
H451        H  0.14213226  0.73814564  0.07582677     0.13900
H452        H  0.16712687  0.67596540  0.11388179     0.14500
C453        C  0.04205428  0.60554717  0.98711146    -0.15100
C454        C  0.05891293  0.62356985  0.02068833    -0.30300
H455        H  0.03841926  0.61387855  0.95005208     0.13900
H456        H  0.06964720  0.61329530  0.55905834     0.14500
C457        C  0.07764497  0.65476721  0.51218972     0.87800
C458        C  0.10380448  0.66774940  0.55323597    -0.52400
C459        C  0.11781521  0.69685351  0.54556647     0.10800
C460        C  0.10231123  0.71097487  0.99640578     0.21700
C461        C  0.03813927  0.67671242  0.50930447    -0.53100
C462        C  0.05185469  0.70595592  0.50217716     0.10900
C463        C  0.10677128  0.66004130  0.96274454    -0.52700
C464        C  0.12172103  0.68898823  0.95504425     0.11400
H465        H  0.10989297  0.65488572  0.58581739     0.16000
H466        H  0.11398560  0.73462960  0.99121242     0.01700
H467        H  0.00267308  0.66997626  0.51496100     0.16300
H468        H  0.11864836  0.64155046  0.93835944     0.16000
C469        C  0.43729702  0.82815573  0.49573332     0.87800
C470        C  0.40375935  0.82382346  0.54267861    -0.52400
C471        C  0.38966861  0.79477242  0.55071552     0.10800
C472        C  0.41041491  0.77267090  0.51028119     0.21700
C473        C  0.47622149  0.80623989  0.50076082    -0.53100
C474        C  0.46209485  0.77717248  0.50777540     0.10900
C475        C  0.41594113  0.81597991  0.95546295    -0.52700
C476        C  0.40203210  0.78678395  0.96290272     0.11400
H477        H  0.39097332  0.84234741  0.56651365     0.16000
H478        H  0.39921478  0.74893526  0.51581562     0.01700
H479        H  0.51175822  0.81287657  0.49674812     0.16300
H480        H  0.41005546  0.82881562  0.92276678     0.16000
O481        O  0.23756966  0.81415996  0.71538277    -0.79500
O482        O  0.28557083  0.67849301  0.71404050    -0.64200
O483        O  0.22417647  0.75317417  0.73887954    -1.10800
C484        C  0.32517257  0.76513866  0.86190745     1.07300
O485        O  0.28146535  0.66827349  0.79463343    -0.77400
O486        O  0.24335881  0.70738226  0.86136286    -0.65000
Ni487      Ni  0.21336637  0.77923058  0.68549340     1.34900
C488        C  0.21394842  0.72812906  0.86482121     0.86100
O489        O  0.21587980  0.70363828  0.67628245    -0.78000
O490        O  0.18751651  0.74693800  0.65043750    -0.88300
C491        C  0.28733059  0.65996216  0.74929430     0.85700
O492        O  0.27051489  0.77476664  0.64676247    -0.66500
O493        O  0.32594586  0.73643783  0.86324361    -0.85700
C494        C  0.30147668  0.75506640  0.64446036     0.86500
C495        C  0.19126888  0.71836722  0.64929308     1.08100
H496        H  0.32291576  0.73443736  0.75563316     0.39900
O497        O  0.29310958  0.72982041  0.77228633    -1.08400
O498        O  0.21885517  0.75243025  0.83993215    -0.65100
Ni499      Ni  0.26259477  0.76714606  0.78648527     1.26300
O500        O  0.29898949  0.73159899  0.67151988    -0.65300
O501        O  0.30269223  0.77999641  0.83296364    -0.77600
C502        C  0.23006116  0.82291679  0.76029840     0.85900
O503        O  0.23234367  0.80488360  0.79607811    -0.64800
Ni504      Ni  0.30242609  0.70381254  0.82626521     1.27400
Ni505      Ni  0.25512384  0.71612862  0.72404060     1.26100
H506        H  0.19468453  0.74827512  0.75601833     0.40400
C507        C  0.32208108  0.57688110  0.76326274     0.87800
C508        C  0.35539585  0.57222161  0.71631428    -0.52400
C509        C  0.36960987  0.54323072  0.70872947     0.10800
C510        C  0.34879816  0.52134899  0.74963475     0.21700
C511        C  0.28302268  0.55469919  0.75876350    -0.53100
C512        C  0.29690192  0.52556797  0.75223438     0.10900
C513        C  0.34688688  0.56439077  0.80554259    -0.52700
C514        C  0.36155888  0.53546311  0.79830826     0.11400
H515        H  0.36827978  0.59060747  0.69225675     0.16000
H516        H  0.36698590  0.99783256  0.74005089     0.01700
H517        H  0.24754248  0.56125288  0.76267122     0.16300
H518        H  0.35220945  0.57756150  0.83823250     0.16000
C519        C  0.18834825  0.90389365  0.74348283     0.87800
C520        C  0.16297572  0.91542463  0.70093591    -0.52400
C521        C  0.14804975  0.94436649  0.70704641     0.10800
C522        C  0.16087630  0.95932348  0.75516124     0.21700
C523        C  0.22709124  0.92647547  0.74678651    -0.53100
C524        C  0.21279619  0.95552734  0.75236492     0.10900
C525        C  0.15531922  0.90891773  0.79050723    -0.52700
C526        C  0.14091529  0.93791739  0.79714907     0.11400
H527        H  0.15774978  0.90170590  0.66882208     0.16000
H528        H  0.14937963  0.98300611  0.75966084     0.01700
H529        H  0.26267176  0.92016949  0.74320559     0.16300
H530        H  0.14320152  0.89083588  0.81561597     0.16000
O531        O  0.03788794  0.56225944  0.54551168    -0.79500
O532        O  0.48329723  0.92798844  0.54433137    -0.64200
O533        O  0.04334971  0.50011757  0.52029377    -1.10800
C534        C  0.43683238  0.51652049  0.90155183     1.07300
O535        O  0.48253196  0.92068321  0.96448070    -0.77400
O536        O  0.02416248  0.95667367  0.89679161    -0.65000
Ni537      Ni  0.05270737  0.52473982  0.57616541     1.34900
C538        C  0.05299822  0.97789183  0.89074980     0.86100
O539        O  0.05623857  0.94875076  0.56855444    -0.78000
O540        O  0.07620472  0.99209596  0.60337549    -0.88300
C541        C  0.47815197  0.91001268  0.50900287     0.85700
O542        O  0.49038465  0.52726041  0.61230557    -0.66500
O543        O  0.44261019  0.98929274  0.89590875    -0.85700
C544        C  0.46319241  0.50514308  0.61920242     0.86500
C545        C  0.07636966  0.96347138  0.60028056     1.08100
H546        H  0.44595883  0.98496467  0.50749718     0.39900
O547        O  0.47574630  0.98314227  0.98652444    -1.08400
O548        O  0.04806861  0.00295561  0.91368341    -0.65100
Ni549      Ni  0.99673545  0.51735209  0.97507426     1.26300
O550        O  0.47361325  0.97988992  0.58984749    -0.65300
O551        O  0.45876115  0.53173432  0.93098284    -0.77600
C552        C  0.04133521  0.57106411  0.50041465     0.85900
O553        O  0.02731999  0.55508723  0.96408597    -0.63600
Ni554      Ni  0.46404469  0.95677823  0.93328513     1.27400
Ni555      Ni  0.01753645  0.96254741  0.52100592     1.26100
H556        H  0.07757022  0.99715310  0.49547090     0.40400
C557        C  0.10458331  0.94525585  0.83762703    -0.15100
C558        C  0.09357273  0.97315370  0.85417579    -0.30300
H559        H  0.08541042  0.92623492  0.85439387     0.13900
H560        H  0.11369352  0.99245768  0.84038051     0.14500
C561        C  0.10142943  0.94652306  0.63538620    -0.15100
C562        C  0.12223723  0.96042174  0.67122501    -0.30300
H563        H  0.10211215  0.92222182  0.63179282     0.13900
H564        H  0.11962840  0.98467026  0.67553055     0.14500
C565        C  0.26491176  0.50078372  0.75360155    -0.11900
C566        C  0.24449106  0.98041950  0.75101201    -0.13500
C567        C  0.41077968  0.53309254  0.86710881    -0.15100
C568        C  0.38804061  0.51907631  0.83305312    -0.30300
H569        H  0.41108321  0.55744373  0.86964756     0.13900
H570        H  0.38987076  0.49477110  0.82920506     0.14500
C571        C  0.42181444  0.50886439  0.65503491    -0.15100
C572        C  0.40707670  0.53652388  0.66900234    -0.30300
H573        H  0.40396867  0.48895697  0.67005836     0.13900
H574        H  0.42436888  0.55589347  0.65100181     0.14500
C575        C  0.21964096  0.85489457  0.77034201    -0.15100
C576        C  0.20333749  0.87177227  0.73527755    -0.30300
H577        H  0.22257683  0.86414687  0.80708423     0.13900
H578        H  0.19852454  0.86150363  0.69968792     0.14500
C579        C  0.29526978  0.62773391  0.73797454    -0.15100
C580        C  0.30800635  0.60915339  0.77300778    -0.30300
H581        H  0.29351108  0.61960850  0.70030329     0.13900
H582        H  0.31153518  0.61822732  0.80976628     0.14500
C583        C  0.37577715  0.76939145  0.92871942    -0.15100
C584        C  0.35179369  0.78249367  0.89527687    -0.30300
H585        H  0.37479691  0.74509530  0.93285777     0.13900
H586        H  0.35083178  0.80681810  0.89247332     0.14500
C587        C  0.35266751  0.78766088  0.59062310    -0.15100
C588        C  0.34206379  0.75985836  0.60797777    -0.30300
H589        H  0.33275253  0.80661843  0.60625711     0.13900
H590        H  0.36310419  0.74073383  0.59572296     0.14500
C591        C  0.45186018  0.86026853  0.48578172    -0.15100
C592        C  0.46810234  0.87805504  0.51998865    -0.30300
H593        H  0.44686022  0.86967114  0.44974029     0.13900
H594        H  0.47191061  0.87262773  0.05941543     0.14500
C595        C  0.49357982  0.75253742  0.50653612    -0.11900
C596        C  0.02043963  0.73085964  0.50566231    -0.13500
C597        C  0.15898025  0.69587222  0.91507235    -0.15100
C598        C  0.17244444  0.72374249  0.90027665    -0.30300
H599        H  0.17716674  0.67666734  0.89776465     0.13900
H600        H  0.15333890  0.74334925  0.91425824     0.14500
C601        C  0.14339276  0.71421485  0.58027080    -0.15100
C602        C  0.16588749  0.70104487  0.61494389    -0.30300
H603        H  0.14456179  0.73850979  0.57609504     0.13900
H604        H  0.16715591  0.67673275  0.61758328     0.14500
C605        C  0.04920521  0.60344685  0.48918112    -0.15100
C606        C  0.06412485  0.62227352  0.52289255    -0.30300
H607        H  0.04535748  0.61155413  0.45203584     0.13900
H608        H  0.06417068  0.61424650  0.05670400     0.14500
C609        C  0.57766367  0.16075159  0.01707987     0.87800
C610        C  0.60079446  0.17214865  0.06189356    -0.52400
C611        C  0.61071011  0.20219843  0.06080031     0.10800
C612        C  0.59714332  0.21247944  0.50234745     0.21700
C613        C  0.53552144  0.18072233  0.01662797    -0.53100
C614        C  0.54536086  0.21078628  0.01572179     0.10900
C615        C  0.60074303  0.16325433  0.46253642    -0.52700
C616        C  0.61639718  0.19214931  0.45856495     0.11400
H617        H  0.60843560  0.15742534  0.09169224     0.16000
H618        H  0.60913957  0.23616931  0.49995915     0.01700
H619        H  0.50119651  0.17193434  0.01756386     0.16300
H620        H  0.61354408  0.14612404  0.43604099     0.16000
C621        C  0.92515845  0.32802066  0.00356177     0.87800
C622        C  0.89219074  0.32463553  0.05102297    -0.52400
C623        C  0.87706281  0.29592643  0.05997585     0.10800
C624        C  0.89614325  0.27309190  0.01997495     0.21700
C625        C  0.96328213  0.30538468  0.00858861    -0.53100
C626        C  0.94791269  0.27660861  0.01672796     0.10900
C627        C  0.90172679  0.32114162  0.48659945    -0.52700
C628        C  0.88796040  0.29152413  0.48660018     0.11400
H629        H  0.88071792  0.34350951  0.07476514     0.16000
H630        H  0.88406466  0.24960622  0.02642324     0.01700
H631        H  0.99908124  0.31135056  0.00413742     0.16300
H632        H  0.89386587  0.33739472  0.45904102     0.16000
O633        O  0.73065993  0.31921320  0.22878475    -0.79500
O634        O  0.77681591  0.18341851  0.22821169    -0.64200
O635        O  0.71810971  0.25862880  0.25550835    -1.10800
C636        C  0.81858967  0.27331552  0.37617936     1.07300
O637        O  0.79376483  0.17368931  0.30470453    -0.77400
O638        O  0.73874369  0.21043238  0.36547184    -0.65000
Ni639      Ni  0.70514657  0.28387756  0.20173314     1.34900
C640        C  0.71180071  0.23246663  0.37451321     0.86100
O641        O  0.70426019  0.20799805  0.19715540    -0.78000
O642        O  0.67809239  0.25121499  0.16871212    -0.88300
C643        C  0.78951760  0.16558286  0.26020434     0.85700
O644        O  0.76111109  0.27895310  0.16132123    -0.66500
O645        O  0.81381403  0.24493774  0.38145676    -0.85700
C646        C  0.79081481  0.25844325  0.15727808     0.86500
C647        C  0.68015827  0.22258234  0.16935926     1.08100
H648        H  0.81916758  0.23995709  0.26512463     0.39900
O649        O  0.79015968  0.23581556  0.28403435    -1.08400
O650        O  0.71974335  0.25857899  0.35588201    -0.65100
Ni651      Ni  0.75981474  0.27339808  0.29895071     1.26300
O652        O  0.78823586  0.23502310  0.18419833    -0.65300
O653        O  0.80296732  0.28754260  0.34128446    -0.77600
C654        C  0.72510248  0.32863569  0.27336291     0.85900
O655        O  0.72914215  0.31107899  0.30943152    -0.64800
Ni656      Ni  0.80114441  0.21118882  0.33947070     1.27400
Ni657      Ni  0.74760463  0.22116760  0.24040058     1.26100
H658        H  0.68931776  0.25435501  0.27472453     0.40400
C659        C  0.83163633  0.08285993  0.26088156     0.87800
C660        C  0.86334287  0.07898331  0.21221500    -0.52400
C661        C  0.87621845  0.04985533  0.20182445     0.10800
C662        C  0.85534712  0.02722989  0.24149654     0.21700
C663        C  0.79126528  0.06165853  0.25643492    -0.53100
C664        C  0.80368217  0.03246876  0.24695384     0.10900
C665        C  0.85736123  0.06833476  0.30063342    -0.52700
C666        C  0.87017903  0.03931545  0.29036752     0.11400
H667        H  0.87654837  0.09787885  0.18953855     0.16000
H668        H  0.86070896  0.50134082  0.24422641     0.01700
H669        H  0.75608903  0.06872866  0.26339593     0.16300
H670        H  0.86410353  0.08010064  0.33424566     0.16000
C671        C  0.68538089  0.40993236  0.25387140     0.87800
C672        C  0.66180159  0.42179109  0.21009435    -0.52400
C673        C  0.64614807  0.45059382  0.21651024     0.10800
C674        C  0.65636741  0.46502428  0.26590944     0.21700
C675        C  0.72324321  0.43279255  0.25980618    -0.53100
C676        C  0.70815392  0.46169143  0.26534993     0.10900
C677        C  0.65036030  0.41418697  0.29937867    -0.52700
C678        C  0.63501704  0.44292154  0.30615718     0.11400
H679        H  0.65820294  0.40846840  0.17706971     0.16000
H680        H  0.64420058  0.48855689  0.27060478     0.01700
H681        H  0.75895656  0.42687307  0.25694186     0.16300
H682        H  0.63745219  0.39571124  0.32323713     0.16000
O683        O  0.53821014  0.06817755  0.04104570    -0.79500
O684        O  0.97494617  0.42857035  0.04797535    -0.64200
O685        O  0.54662204  0.00633195  0.01723038    -1.10800
C686        C  0.94628929  0.01468387  0.38844594     1.07300
O687        O  0.99271865  0.41953416  0.45254750    -0.77400
O688        O  0.51475257  0.45956335  0.40380738    -0.65000
Ni689      Ni  0.55948815  0.03227571  0.07051051     1.34900
C690        C  0.54438705  0.48035613  0.39986566     0.86100
O691        O  0.54838710  0.45520147  0.08482635    -0.78000
O692        O  0.57789769  0.49861954  0.10983506    -0.88300
C693        C  0.96867584  0.40995648  0.01372705     0.85700
O694        O  0.99752482  0.02946259  0.10555255    -0.66500
O695        O  0.93523336  0.48685014  0.39886450    -0.85700
C696        C  0.96623710  0.00972121  0.10906740     0.86500
C697        C  0.57396742  0.47004878  0.11100577     1.08100
H698        H  0.93657148  0.48422935  0.00765381     0.39900
O699        O  0.97473134  0.47835110  0.48362355    -1.08400
O700        O  0.54109700  0.50407666  0.42639211    -0.65100
Ni701      Ni  0.50700312  0.01703959  0.47496649     1.26300
O702        O  0.96401040  0.48176912  0.09088263    -0.65300
O703        O  0.97208762  0.02867256  0.41539931    -0.77600
C704        C  0.54286851  0.07690940  0.99602679     0.85900
O705        O  0.53983367  0.05340093  0.46368107    -0.63600
Ni706      Ni  0.96413403  0.45403785  0.42795186     1.27400
Ni707      Ni  0.50778870  0.46778380  0.03849052     1.26100
H708        H  0.56799855  0.50003054  0.00523040     0.40400
C709        C  0.59656323  0.44924768  0.34473967    -0.15100
C710        C  0.58462019  0.47669215  0.36248499    -0.30300
H711        H  0.57729668  0.42982511  0.35985270     0.13900
H712        H  0.60493550  0.49630465  0.35065616     0.14500
C713        C  0.60016479  0.45312890  0.14489525    -0.15100
C714        C  0.62149858  0.46697079  0.18018493    -0.30300
H715        H  0.59996263  0.42877774  0.14209785     0.13900
H716        H  0.61910501  0.49123544  0.18447979     0.14500
C717        C  0.77105338  0.00800333  0.25070715    -0.11900
C718        C  0.73922153  0.48694394  0.26277926    -0.13500
C719        C  0.92036497  0.03298746  0.35663328    -0.15100
C720        C  0.89579857  0.02079194  0.32278960    -0.30300
H721        H  0.92303961  0.05721939  0.36031065     0.13900
H722        H  0.89556435  0.99657788  0.31727855     0.14500
C723        C  0.92516039  0.01508160  0.14500327    -0.15100
C724        C  0.91362462  0.04298574  0.16163841    -0.30300
H725        H  0.90431186  0.99586882  0.15759654     0.13900
H726        H  0.93346736  0.06200685  0.14592969     0.14500
C727        C  0.71510384  0.36081252  0.28238691    -0.15100
C728        C  0.70110555  0.37790512  0.24603184    -0.30300
H729        H  0.71643988  0.37009892  0.31940964     0.13900
H730        H  0.69814866  0.36783412  0.20983937     0.14500
C731        C  0.79953383  0.13398713  0.24505032    -0.15100
C732        C  0.81911564  0.11504500  0.27473356    -0.30300
H733        H  0.79199367  0.12637581  0.20864551     0.13900
H734        H  0.82743240  0.12332654  0.31048450     0.14500
C735        C  0.86127364  0.27664288  0.44969625    -0.15100
C736        C  0.84328526  0.29048332  0.41221387    -0.30300
H737        H  0.85648167  0.25251396  0.45401833     0.13900
H738        H  0.84713269  0.31460142  0.40723040     0.14500
C739        C  0.84114479  0.28972167  0.10110961    -0.15100
C740        C  0.83008482  0.26220455  0.11908615    -0.30300
H741        H  0.82258406  0.30911252  0.11722597     0.13900
H742        H  0.84990491  0.24263015  0.10634677     0.14500
C743        C  0.94075317  0.35997532  0.99279855    -0.15100
C744        C  0.95797134  0.37810390  0.02615004    -0.30300
H745        H  0.93536957  0.36908347  0.95668349     0.13900
H746        H  0.98095435  0.36253291  0.46177205     0.14500
C747        C  0.97805355  0.25128178  0.01677573    -0.11900
C748        C  0.51137551  0.23393426  0.01612010    -0.13500
C749        C  0.65449072  0.19975801  0.42004245    -0.15100
C750        C  0.67003724  0.22770989  0.40931569    -0.30300
H751        H  0.67145947  0.18090690  0.40018404     0.13900
H752        H  0.65246390  0.24717298  0.42624449     0.14500
C753        C  0.63395327  0.21866363  0.09881005    -0.15100
C754        C  0.65409740  0.20525271  0.13525271    -0.30300
H755        H  0.63612070  0.24295791  0.09495139     0.13900
H756        H  0.65392765  0.18096645  0.13870277     0.14500
C757        C  0.55215880  0.10951458  0.98601457    -0.15100
C758        C  0.56770627  0.12714549  0.02133768    -0.30300
H759        H  0.54714920  0.11888942  0.95001897     0.13900
H760        H  0.53362059  0.12046973  0.55516681     0.14500
C761        C  0.56790942  0.15710202  0.50974593     0.87800
C762        C  0.59430210  0.16702036  0.55250839    -0.52400
C763        C  0.60971303  0.19601691  0.54883354     0.10800
C764        C  0.59597531  0.21822414  0.01504656     0.21700
C765        C  0.52994354  0.18022110  0.50915418    -0.53100
C766        C  0.54518112  0.20914693  0.50551248     0.10900
C767        C  0.60998046  0.17060075  0.97128188    -0.52700
C768        C  0.61949769  0.20100404  0.96998717     0.11400
H769        H  0.59926003  0.15221038  0.58319507     0.16000
H770        H  0.60345184  0.24276370  0.01423891     0.01700
H771        H  0.49411640  0.17430279  0.51301488     0.16300
H772        H  0.62443548  0.15456144  0.94372562     0.16000
C773        C  0.93012885  0.32914798  0.52959141     0.87800
C774        C  0.90017532  0.31983138  0.57669918    -0.52400
C775        C  0.88544178  0.29082697  0.57689041     0.10800
C776        C  0.90355371  0.27310887  0.52961832     0.21700
C777        C  0.96943312  0.30650817  0.52451964    -0.53100
C778        C  0.95548036  0.27720654  0.52407105     0.10900
C779        C  0.89923281  0.31498681  0.96214669    -0.52700
C780        C  0.88366045  0.28623770  0.97084671     0.11400
H781        H  0.88909420  0.33556331  0.60645200     0.16000
H782        H  0.89272949  0.24918145  0.52950864     0.01700
H783        H  0.00498344  0.31309634  0.52043655     0.16300
H784        H  0.89433824  0.32750504  0.92882586     0.16000
O785        O  0.71531192  0.31030958  0.72657245    -0.79500
O786        O  0.76830921  0.17273269  0.71772985    -0.64200
O787        O  0.71054429  0.24820517  0.74760336    -1.10800
C788        C  0.81287648  0.26326707  0.86518366     1.07300
O789        O  0.80391522  0.16618231  0.78505188    -0.77400
O790        O  0.74259020  0.19556296  0.84776700    -0.65000
Ni791      Ni  0.70099683  0.27389172  0.69325517     1.34900
C792        C  0.71196603  0.21485589  0.86000359     0.86100
O793        O  0.69421118  0.19771626  0.69248239    -0.78000
O794        O  0.68378964  0.24091892  0.65316021    -0.88300
C795        C  0.79048509  0.15664638  0.74485628     0.85700
O796        O  0.76229957  0.27257305  0.66446131    -0.66500
O797        O  0.80961417  0.23491796  0.87004363    -0.85700
C798        C  0.78744438  0.24994035  0.65396589     0.86500
C799        C  0.67825578  0.21264254  0.65847604     1.08100
H800        H  0.81297269  0.23236209  0.74968789     0.39900
O801        O  0.78581244  0.22666024  0.77087131    -1.08400
O802        O  0.71541802  0.24269827  0.84692245    -0.65100
Ni803      Ni  0.75234944  0.26247955  0.79057653     1.26300
O804        O  0.77792356  0.22398526  0.67180151    -0.65300
O805        O  0.79596872  0.27712879  0.83109514    -0.77600
C806        C  0.71351312  0.31802630  0.77201063     0.85900
O807        O  0.71910419  0.29901038  0.80583851    -0.64800
Ni808      Ni  0.80397139  0.20233803  0.82356767     1.27400
Ni809      Ni  0.74032080  0.21091104  0.73134325     1.26100
H810        H  0.68141858  0.24421378  0.76633905     0.40400
C811        C  0.83385624  0.07462767  0.74897718     0.87800
C812        C  0.86360452  0.06875186  0.69986596    -0.52400
C813        C  0.87631479  0.03934682  0.69257359     0.10800
C814        C  0.85771332  0.01848325  0.73595013     0.21700
C815        C  0.79341921  0.05302990  0.74904390    -0.53100
C816        C  0.80598034  0.02361751  0.74272291     0.10900
C817        C  0.86118673  0.06232731  0.78910969    -0.52700
C818        C  0.87415516  0.03307767  0.78251115     0.11400
H819        H  0.87530234  0.08660892  0.67412436     0.16000
H820        H  0.86381598  0.49570901  0.73821551     0.01700
H821        H  0.75825646  0.06014844  0.75590698     0.16300
H822        H  0.86830689  0.07580578  0.82078538     0.16000
C823        C  0.68147880  0.40231363  0.75760281     0.87800
C824        C  0.65504784  0.41465332  0.71615652    -0.52400
C825        C  0.64251605  0.44417104  0.72223672     0.10800
C826        C  0.65813834  0.45865196  0.76913592     0.21700
C827        C  0.72203324  0.42384392  0.75836072    -0.53100
C828        C  0.70975023  0.45337215  0.76376072     0.10900
C829        C  0.65057568  0.40860157  0.80572600    -0.52700
C830        C  0.63809525  0.43800760  0.81211874     0.11400
H831        H  0.64740828  0.40095233  0.68491603     0.16000
H832        H  0.64861644  0.48270106  0.77351719     0.01700
H833        H  0.75716310  0.41656923  0.75255940     0.16300
H834        H  0.63773546  0.39098143  0.83139900     0.16000
O835        O  0.53996985  0.06443359  0.54355391    -0.79500
O836        O  0.98003856  0.42401546  0.53408265    -0.64200
O837        O  0.54657363  0.00233688  0.52025425    -1.10800
C838        C  0.94492653  0.01461423  0.88976586     1.07300
O839        O  0.97188487  0.41764903  0.96826391    -0.77400
O840        O  0.51745909  0.45854341  0.90325887    -0.65000
Ni841      Ni  0.55762148  0.02796565  0.57472007     1.34900
C842        C  0.54687856  0.47944732  0.89888651     0.86100
O843        O  0.55402270  0.45248006  0.58250733    -0.78000
O844        O  0.56913299  0.49521956  0.62136777    -0.88300
C845        C  0.98109702  0.40795833  0.49471093     0.85700
O846        O  0.99478411  0.02052501  0.59908437    -0.66500
O847        O  0.93759899  0.48636523  0.89614188    -0.85700
C848        C  0.96596348  0.99926668  0.60094113     0.86500
C849        C  0.57205960  0.46675228  0.61593852     1.08100
H850        H  0.94514720  0.48301206  0.50065063     0.39900
O851        O  0.96603854  0.47985964  0.99006375    -1.08400
O852        O  0.54212984  0.50421860  0.92260684    -0.65100
Ni853      Ni  0.50712011  0.02050164  0.97108029     1.26300
O854        O  0.96750132  0.47657917  0.58502267    -0.65300
O855        O  0.96527922  0.03036927  0.91987414    -0.77600
C856        C  0.54466089  0.07201073  0.49794416     0.85900
O857        O  0.53820116  0.05862231  0.96061911    -0.63600
Ni858      Ni  0.95622969  0.45382250  0.93560979     1.27400
Ni859      Ni  0.51115390  0.46619311  0.54046556     1.26100
H860        H  0.57069736  0.49994693  0.50818604     0.40400
C861        C  0.60217834  0.44631456  0.85247935    -0.15100
C862        C  0.58823404  0.47451787  0.86378996    -0.30300
H863        H  0.58470977  0.42773092  0.87269415     0.13900
H864        H  0.60639879  0.49383316  0.84698881     0.14500
C865        C  0.59734178  0.44904106  0.64983445    -0.15100
C866        C  0.61673413  0.46152523  0.68773998    -0.30300
H867        H  0.59949359  0.42501286  0.64314216     0.13900
H868        H  0.61318089  0.48553724  0.69455576     0.14500
C869        C  0.77343566  0.99933016  0.74853563    -0.11900
C870        C  0.74244993  0.47774476  0.75824636    -0.13500
C871        C  0.92116763  0.03070148  0.85300162    -0.15100
C872        C  0.89986303  0.01657390  0.81786864    -0.30300
H873        H  0.92207285  0.05502894  0.85508309     0.13900
H874        H  0.90116857  0.99222242  0.81471502     0.14500
C875        C  0.92424416  0.00324121  0.63640979    -0.15100
C876        C  0.91101178  0.03131044  0.65058094    -0.30300
H877        H  0.90613277  0.98360727  0.65215258     0.13900
H878        H  0.92844227  0.05025714  0.63138507     0.14500
C879        C  0.70576604  0.35039267  0.78415561    -0.15100
C880        C  0.69366265  0.36946966  0.74905503    -0.30300
H881        H  0.70852945  0.35837683  0.82169286     0.13900
H882        H  0.68962064  0.36053897  0.71234743     0.14500
C883        C  0.80065958  0.12507788  0.72989758    -0.15100
C884        C  0.82212153  0.10717900  0.75950941    -0.30300
H885        H  0.78994669  0.11632683  0.69551777     0.13900
H886        H  0.83242175  0.11666754  0.79360123     0.14500
C887        C  0.85786256  0.26855156  0.93661850    -0.15100
C888        C  0.83678106  0.28114741  0.90033727    -0.30300
H889        H  0.85576254  0.24437515  0.94218091     0.13900
H890        H  0.83732735  0.30536137  0.89545693     0.14500
C891        C  0.84863495  0.28149559  0.61541926    -0.15100
C892        C  0.82905681  0.25421286  0.61913650    -0.30300
H893        H  0.83496991  0.29905011  0.64093845     0.13900
H894        H  0.84280721  0.23541822  0.59668280     0.14500
C895        C  0.94449175  0.36191091  0.53250359    -0.15100
C896        C  0.97035169  0.37541851  0.49530474    -0.30300
H897        H  0.93258738  0.37503934  0.56537800     0.13900
H898        H  0.96181953  0.36989395  0.06322926     0.14500
C899        C  0.98696943  0.25238440  0.51556263    -0.11900
C900        C  0.51433861  0.23421759  0.50926677    -0.13500
C901        C  0.65194608  0.21665575  0.93196475    -0.15100
C902        C  0.67166585  0.20291630  0.89092571    -0.30300
H903        H  0.66214346  0.23950650  0.93994120     0.13900
H904        H  0.66274145  0.17982559  0.88334143     0.14500
C905        C  0.63545739  0.21104138  0.58573334    -0.15100
C906        C  0.65279249  0.19650304  0.62292950    -0.30300
H907        H  0.64071327  0.23512859  0.58134025     0.13900
H908        H  0.64905816  0.17237141  0.62736474     0.14500
C909        C  0.55565221  0.10329153  0.48424717    -0.15100
C910        C  0.55039568  0.12543712  0.51817937    -0.30300
H911        H  0.56856696  0.10769490  0.44586686     0.13900
H912        H  0.57418688  0.11656663  0.05601000     0.14500
C913        C  0.57892442  0.65623306  0.01823503     0.87800
C914        C  0.60458619  0.66871057  0.06033268    -0.52400
C915        C  0.62032696  0.69752977  0.05263094     0.10800
C916        C  0.60368754  0.71251783  0.50080974     0.21700
C917        C  0.54099597  0.67904581  0.01344624    -0.53100
C918        C  0.55632092  0.70787916  0.00624498     0.10900
C919        C  0.61139018  0.66159795  0.46738943    -0.52700
C920        C  0.62516103  0.69085304  0.45998796     0.11400
H921        H  0.60929535  0.65574754  0.09324763     0.16000
H922        H  0.61441000  0.73638046  0.49601373     0.01700
H923        H  0.50520030  0.67308326  0.01727228     0.16300
H924        H  0.62451640  0.64328791  0.44328697     0.16000
C925        C  0.93738718  0.82915085  0.00111792     0.87800
C926        C  0.90485013  0.82523837  0.04886018    -0.52400
C927        C  0.89067167  0.79630299  0.05788386     0.10800
C928        C  0.91054237  0.77376832  0.01756958     0.21700
C929        C  0.97646427  0.80721359  0.00552126    -0.53100
C930        C  0.96237579  0.77816298  0.01339368     0.10900
C931        C  0.91190667  0.82096662  0.47653359    -0.52700
C932        C  0.89757913  0.79146455  0.47773958     0.11400
H933        H  0.89252637  0.84399597  0.07242195     0.16000
H934        H  0.89940764  0.75008698  0.02396521     0.01700
H935        H  0.01202406  0.81374604  0.99983994     0.16300
H936        H  0.90485324  0.83674815  0.44790599     0.16000
O937        O  0.73499445  0.81830854  0.22115565    -0.79500
O938        O  0.78568971  0.68268212  0.22291225    -0.64200
O939        O  0.72470987  0.75732645  0.24732745    -1.10800
C940        C  0.82495637  0.77234830  0.37028754     1.07300
O941        O  0.79262827  0.67287236  0.30222069    -0.77400
O942        O  0.74530363  0.71092626  0.36500240    -0.65000
Ni943      Ni  0.71332836  0.78221136  0.19235740     1.34900
C944        C  0.71640041  0.73198235  0.37063991     0.86100
O945        O  0.71393739  0.70621595  0.18869646    -0.78000
O946        O  0.68946359  0.74897740  0.15724988    -0.88300
C947        C  0.79266551  0.66456962  0.25712380     0.85700
O948        O  0.77144173  0.77859285  0.15541621    -0.66500
O949        O  0.82383222  0.74373257  0.37361231    -0.85700
C950        C  0.80128493  0.75814989  0.15222629     0.86500
C951        C  0.69106999  0.72035408  0.15920701     1.08100
H952        H  0.82478268  0.73948579  0.26134705     0.39900
O953        O  0.79545050  0.73495800  0.27927224    -1.08400
O954        O  0.72213168  0.75728690  0.34844476    -0.65100
Ni955      Ni  0.76430403  0.77229924  0.29319576     1.26300
O956        O  0.79757037  0.73439985  0.17850591    -0.65300
O957        O  0.80544402  0.78662513  0.33807443    -0.77600
C958        C  0.73010167  0.82759366  0.26589345     0.85900
O959        O  0.73340286  0.80994342  0.30208514    -0.64800
Ni960      Ni  0.80623435  0.71006345  0.33446657     1.27400
Ni961      Ni  0.75536014  0.72009316  0.23345872     1.26100
H962        H  0.69544555  0.75279322  0.26528844     0.40400
C963        C  0.82913418  0.58153334  0.26549349     0.87800
C964        C  0.86072395  0.57628916  0.21730518    -0.52400
C965        C  0.87277004  0.54689121  0.20886873     0.10800
C966        C  0.85147867  0.52536413  0.25000403     0.21700
C967        C  0.78825459  0.56065420  0.26227116    -0.53100
C968        C  0.79996121  0.53119356  0.25476798     0.10900
C969        C  0.85434630  0.56786784  0.30635931    -0.52700
C970        C  0.86645684  0.53855559  0.29817828     0.11400
H971        H  0.87419923  0.59450908  0.19321924     0.16000
H972        H  0.86510612  0.00342063  0.23422331     0.01700
H973        H  0.75326837  0.56822826  0.26812824     0.16300
H974        H  0.86130907  0.58041873  0.33913934     0.16000
C975        C  0.69218146  0.90944382  0.24728265     0.87800
C976        C  0.66751677  0.92137293  0.20427520    -0.52400
C977        C  0.65157364  0.95008986  0.21143201     0.10800
C978        C  0.66236599  0.96425668  0.26071955     0.21700
C979        C  0.72985024  0.93260925  0.25272238    -0.53100
C980        C  0.71427523  0.96140063  0.25893592     0.10900
C981        C  0.65784696  0.91320924  0.29343179    -0.52700
C982        C  0.64210081  0.94174382  0.30088037     0.11400
H983        H  0.66360794  0.90820085  0.17117741     0.16000
H984        H  0.64983768  0.98767258  0.26599382     0.01700
H985        H  0.76569467  0.92699462  0.24889009     0.16300
H986        H  0.64551232  0.89453813  0.31717104     0.16000
O987        O  0.52754476  0.56619002  0.04770348    -0.79500
O988        O  0.97990241  0.93136638  0.04376372    -0.64200
O989        O  0.53891088  0.50495064  0.02317792    -1.10800
C990        C  0.94122580  0.51528109  0.39837644     1.07300
O991        O  0.00140248  0.91948608  0.44134968    -0.77400
O992        O  0.52128561  0.95788754  0.39768344    -0.65000
Ni993      Ni  0.55167525  0.53099704  0.07623267     1.34900
C994        C  0.55117091  0.97851687  0.39390825     0.86100
O995        O  0.55611688  0.95615538  0.07804657    -0.78000
O996        O  0.58340161  0.99949962  0.10572117    -0.88300
C997        C  0.97664549  0.91202893  0.00980919     0.85700
O998        O  0.99183148  0.52617495  0.11233432    -0.66500
O999        O  0.94189505  0.98611995  0.38756665    -0.85700
C1000       C  0.96130443  0.50595388  0.11647676     0.86500
C1001       C  0.58041428  0.97087017  0.10563004     1.08100
H1002       H  0.94403994  0.98638552  0.99946537     0.39900
O1003       O  0.98054370  0.97772105  0.47336183    -1.08400
O1004       O  0.54794969  0.00231375  0.41998654    -0.65100
Ni1005     Ni  0.50008413  0.51817031  0.48237328     1.26300
O1006       O  0.96881058  0.98539080  0.08382277    -0.65300
O1007       O  0.96823553  0.52906292  0.42428502    -0.77600
C1008       C  0.53438664  0.57494253  0.00281682     0.85900
O1009       O  0.53020494  0.55577658  0.47105502    -0.63600
Ni1010     Ni  0.97171071  0.95361533  0.41683229     1.27400
Ni1011     Ni  0.51520050  0.96912793  0.03274453     1.26100
H1012       H  0.57569165  0.00137364  0.99919717     0.40400
C1013       C  0.60392470  0.94751680  0.33981267    -0.15100
C1014       C  0.59153792  0.97487403  0.35711001    -0.30300
H1015       H  0.58511061  0.92796397  0.35514810     0.13900
H1016       H  0.61148538  0.99460569  0.34507848     0.14500
C1017       C  0.60623118  0.95357744  0.13940757    -0.15100
C1018       C  0.62671466  0.96689193  0.17575381    -0.30300
H1019       H  0.60668752  0.92929108  0.13531444     0.13900
H1020       H  0.62378249  0.99106053  0.18114118     0.14500
C1021       C  0.76656347  0.50727402  0.25840384    -0.11900
C1022       C  0.74467010  0.98709359  0.25558062    -0.13500
C1023       C  0.91582142  0.53341049  0.36575300    -0.15100
C1024       C  0.89134525  0.52071026  0.33216916    -0.30300
H1025       H  0.91904112  0.55766924  0.36825830     0.13900
H1026       H  0.89067278  0.49640779  0.32797144     0.14500
C1027       C  0.92093904  0.51097807  0.15336644    -0.15100
C1028       C  0.90915283  0.53909579  0.16839349    -0.30300
H1029       H  0.90111810  0.49171305  0.16783396     0.13900
H1030       H  0.92812055  0.55791100  0.15064019     0.14500
C1031       C  0.72140389  0.85993882  0.27505495    -0.15100
C1032       C  0.70810633  0.87747446  0.23880364    -0.30300
H1033       H  0.72281390  0.86897519  0.31223306     0.13900
H1034       H  0.70503728  0.86766304  0.20245493     0.14500
C1035       C  0.80053940  0.63253765  0.24445204    -0.15100
C1036       C  0.81755819  0.61401302  0.27668342    -0.30300
H1037       H  0.79426794  0.62435166  0.20793592     0.13900
H1038       H  0.82517055  0.62300712  0.31226182     0.14500
C1039       C  0.87141939  0.77610834  0.44082819    -0.15100
C1040       C  0.85028256  0.78983145  0.40547730    -0.30300
H1041       H  0.86899293  0.75178735  0.44397995     0.13900
H1042       H  0.85134148  0.81415518  0.40221189     0.14500
C1043       C  0.85389853  0.78984214  0.09840668    -0.15100
C1044       C  0.84192629  0.76222744  0.11556925    -0.30300
H1045       H  0.83506042  0.80915555  0.11440417     0.13900
H1046       H  0.86178439  0.74266539  0.10287826     0.14500
C1047       C  0.95170979  0.86126920  0.98975456    -0.15100
C1048       C  0.96709370  0.88019721  0.02307979    -0.30300
H1049       H  0.94681877  0.86983121  0.95312919     0.13900
H1050       H  0.99156160  0.86207564  0.45090176     0.14500
C1051       C  0.99372412  0.75329758  0.00967868    -0.11900
C1052       C  0.52567834  0.73315322  0.00622724    -0.13500
C1053       C  0.66221508  0.69858599  0.42013390    -0.15100
C1054       C  0.67479725  0.72675390  0.40578885    -0.30300
H1055       H  0.68104181  0.67972569  0.40252873     0.13900
H1056       H  0.65519177  0.74602235  0.42033937     0.14500
C1057       C  0.64598550  0.71486413  0.08766510    -0.15100
C1058       C  0.66522297  0.70239944  0.12559022    -0.30300
H1059       H  0.65011904  0.73883401  0.08080944     0.13900
H1060       H  0.66339812  0.67828767  0.13153272     0.14500
C1061       C  0.54600337  0.60691549  0.99269854    -0.15100
C1062       C  0.56271280  0.62420689  0.02751020    -0.30300
H1063       H  0.54349437  0.61587305  0.95578092     0.13900
H1064       H  0.57000336  0.61550088  0.56081218     0.14500
C1065       C  0.57760787  0.65673639  0.51410130     0.87800
C1066       C  0.60148761  0.66975238  0.55668256    -0.52400
C1067       C  0.61575340  0.69878229  0.54973543     0.10800
C1068       C  0.60829387  0.71123781  0.00349275     0.21700
C1069       C  0.53837558  0.67840232  0.50905184    -0.53100
C1070       C  0.55208710  0.70762533  0.50262589     0.10900
C1071       C  0.61229305  0.65999162  0.97114418    -0.52700
C1072       C  0.62773352  0.68869337  0.96292995     0.11400
H1073       H  0.60596400  0.65686454  0.58972632     0.16000
H1074       H  0.62051942  0.73473557  0.99766620     0.01700
H1075       H  0.50295861  0.67150696  0.51269141     0.16300
H1076       H  0.62381241  0.64128139  0.94704561     0.16000
C1077       C  0.93998775  0.82943077  0.51958524     0.87800
C1078       C  0.90945088  0.82116697  0.56674143    -0.52400
C1079       C  0.89435845  0.79229989  0.56815532     0.10800
C1080       C  0.91229884  0.77367059  0.52190482     0.21700
C1081       C  0.97884014  0.80647036  0.51614257    -0.53100
C1082       C  0.96419226  0.77729196  0.51694495     0.10900
C1083       C  0.91167665  0.81568351  0.96000394    -0.52700
C1084       C  0.89712829  0.78673011  0.96869606     0.11400
H1085       H  0.89851685  0.83739853  0.59579040     0.16000
H1086       H  0.90085780  0.74985088  0.52285134     0.01700
H1087       H  0.01452115  0.81272291  0.51248493     0.16300
H1088       H  0.90624117  0.82814187  0.92680357     0.16000
O1089       O  0.73626752  0.81366083  0.72045552    -0.79500
O1090       O  0.77947862  0.67638189  0.71671157    -0.64200
O1091       O  0.72269528  0.75237790  0.74399799    -1.10800
C1092       C  0.82542787  0.76410514  0.86380627     1.07300
O1093       O  0.78866075  0.66586425  0.79517055    -0.77400
O1094       O  0.74442532  0.70439660  0.86035746    -0.65000
Ni1095     Ni  0.71320806  0.77860140  0.69008998     1.34900
C1096       C  0.71685599  0.72617545  0.86741362     0.86100
O1097       O  0.70854904  0.70259636  0.68487929    -0.78000
O1098       O  0.68833486  0.74667867  0.65372631    -0.88300
C1099       C  0.78742953  0.65791825  0.75005909     0.85700
O1100       O  0.77146773  0.77382461  0.65434193    -0.66500
O1101       O  0.82419643  0.73550615  0.86679203    -0.85700
C1102       C  0.79925071  0.75215076  0.64951040     0.86500
C1103       C  0.68757283  0.71806545  0.65534234     1.08100
H1104       H  0.82236833  0.73228160  0.75481711     0.39900
O1105       O  0.79325842  0.72810115  0.77342055    -1.08400
O1106       O  0.72268878  0.75121100  0.84471089    -0.65100
Ni1107     Ni  0.76371419  0.76587190  0.78884612     1.26300
O1108       O  0.79328213  0.72773902  0.67347671    -0.65300
O1109       O  0.80605784  0.77881750  0.83220478    -0.77600
C1110       C  0.72958418  0.82194215  0.76559012     0.85900
O1111       O  0.73368428  0.80364926  0.80057255    -0.64800
Ni1112     Ni  0.80451580  0.70252111  0.82762416     1.27400
Ni1113     Ni  0.75128102  0.71450176  0.72886192     1.26100
H1114       H  0.69330087  0.74853588  0.76223576     0.40400
C1115       C  0.82591837  0.57495793  0.75722981     0.87800
C1116       C  0.85787914  0.57016812  0.70914655    -0.52400
C1117       C  0.87200407  0.54107119  0.70142307     0.10800
C1118       C  0.85265696  0.51942563  0.74336024     0.21700
C1119       C  0.78671405  0.55257888  0.75460329    -0.53100
C1120       C  0.80072694  0.52344098  0.74797672     0.10900
C1121       C  0.85212947  0.56272093  0.79838642    -0.52700
C1122       C  0.86663339  0.53383052  0.79121430     0.11400
H1123       H  0.86986771  0.58847428  0.68446670     0.16000
H1124       H  0.86758677  0.99450820  0.73104601     0.01700
H1125       H  0.75118029  0.55896216  0.76031169     0.16300
H1126       H  0.85773532  0.57595910  0.83088536     0.16000
C1127       C  0.68789359  0.90328099  0.75020235     0.87800
C1128       C  0.66312852  0.91546932  0.70752182    -0.52400
C1129       C  0.64945936  0.94471411  0.71382985     0.10800
C1130       C  0.66260708  0.95915028  0.76191294     0.21700
C1131       C  0.72746238  0.92520587  0.75362995    -0.53100
C1132       C  0.71417428  0.95446619  0.75908253     0.10900
C1133       C  0.65486804  0.90876405  0.79710890    -0.52700
C1134       C  0.64154532  0.93801780  0.80359606     0.11400
H1135       H  0.65742493  0.90199581  0.67528857     0.16000
H1136       H  0.65215957  0.98304215  0.76629781     0.01700
H1137       H  0.76283989  0.91840005  0.74927394     0.16300
H1138       H  0.64172114  0.89081850  0.82197022     0.16000
O1139       O  0.53807773  0.56586860  0.55016278    -0.79500
O1140       O  0.98843281  0.92357926  0.52307469    -0.64200
O1141       O  0.54142408  0.50388831  0.52662379    -1.10800
C1142       C  0.93663878  0.51494172  0.89852984     1.07300
O1143       O  0.98236673  0.91911540  0.96403069    -0.77400
O1144       O  0.52313614  0.95928905  0.89851817    -0.65000
Ni1145     Ni  0.55157913  0.52879870  0.58235321     1.34900
C1146       C  0.55298825  0.97991857  0.89337812     0.86100
O1147       O  0.55616662  0.95150403  0.57842960    -0.78000
O1148       O  0.57836388  0.99471187  0.61159109    -0.88300
C1149       C  0.99039168  0.90769319  0.48348276     0.85700
O1150       O  0.99183917  0.52211254  0.60661554    -0.66500
O1151       O  0.94401928  0.98596958  0.88985815    -0.85700
C1152       C  0.96232971  0.50118493  0.60967688     0.86500
C1153       C  0.57772851  0.96605818  0.60885380     1.08100
H1154       H  0.95058285  0.98163015  0.49008038     0.39900
O1155       O  0.97371830  0.98152634  0.98297055    -1.08400
O1156       O  0.54907494  0.00491641  0.91670236    -0.65100
Ni1157     Ni  0.49952921  0.51903053  0.97685051     1.26300
O1158       O  0.97193015  0.97521205  0.57495936    -0.65300
O1159       O  0.95537070  0.53013691  0.93048585    -0.77600
C1160       C  0.53803887  0.57400537  0.50504104     0.85900
O1161       O  0.53034827  0.55692691  0.96705427    -0.63600
Ni1162     Ni  0.96437537  0.95429306  0.93002744     1.27400
Ni1163     Ni  0.51488680  0.96527534  0.53432257     1.26100
H1164       H  0.57582035  0.99769000  0.50231881     0.40400
C1165       C  0.60469631  0.94608106  0.84297741    -0.15100
C1166       C  0.59388826  0.97434454  0.85783088    -0.30300
H1167       H  0.58478889  0.92744383  0.86001876     0.13900
H1168       H  0.61476838  0.99328794  0.84397198     0.14500
C1169       C  0.60314530  0.94856801  0.64269320    -0.15100
C1170       C  0.62441022  0.96171388  0.67859241    -0.30300
H1171       H  0.60326950  0.92430418  0.63838769     0.13900
H1172       H  0.62229588  0.98593081  0.68374295     0.14500
C1173       C  0.76920471  0.49839226  0.75247860    -0.11900
C1174       C  0.74629956  0.97901260  0.75458065    -0.13500
C1175       C  0.91271063  0.53144371  0.86243129    -0.15100
C1176       C  0.89220766  0.51743920  0.82662799    -0.30300
H1177       H  0.91268483  0.55575836  0.86550353     0.13900
H1178       H  0.89433725  0.49315101  0.82267637     0.14500
C1179       C  0.92062265  0.50582544  0.64491911    -0.15100
C1180       C  0.90848302  0.53378734  0.66074145    -0.30300
H1181       H  0.90079649  0.48638540  0.65862226     0.13900
H1182       H  0.92739580  0.55286809  0.64382418     0.14500
C1183       C  0.71828914  0.85375439  0.77660625    -0.15100
C1184       C  0.70186879  0.87093259  0.74189406    -0.30300
H1185       H  0.72141645  0.86276560  0.81345958     0.13900
H1186       H  0.69694932  0.86093556  0.70613301     0.14500
C1187       C  0.79538865  0.62590999  0.73641025    -0.15100
C1188       C  0.81219418  0.60716708  0.76851680    -0.30300
H1189       H  0.79000104  0.61811747  0.69940493     0.13900
H1190       H  0.81869449  0.61605209  0.80454980     0.14500
C1191       C  0.87145509  0.76889122  0.93457761    -0.15100
C1192       C  0.85033844  0.78158005  0.89841422    -0.30300
H1193       H  0.86929163  0.74472112  0.94019642     0.13900
H1194       H  0.85052555  0.80581041  0.89393932     0.14500
C1195       C  0.85773839  0.78372932  0.60705539    -0.15100
C1196       C  0.84057194  0.75600102  0.61441292    -0.30300
H1197       H  0.84249608  0.80201221  0.62999964     0.13900
H1198       H  0.85633229  0.73661317  0.59517934     0.14500
C1199       C  0.95472082  0.86201326  0.52155723    -0.15100
C1200       C  0.98069340  0.87512694  0.48417660    -0.30300
H1201       H  0.94264527  0.87551782  0.55395852     0.13900
H1202       H  0.97022075  0.87264162  0.06070036     0.14500
C1203       C  0.99487712  0.75202103  0.51081313    -0.11900
C1204       C  0.52027226  0.73207728  0.50392541    -0.13500
C1205       C  0.66415535  0.69485759  0.92191235    -0.15100
C1206       C  0.67672061  0.72237072  0.90485661    -0.30300
H1207       H  0.68195555  0.67534245  0.90519059     0.13900
H1208       H  0.65802346  0.74217136  0.91871226     0.14500
C1209       C  0.64074884  0.71556792  0.58547006    -0.15100
C1210       C  0.66144790  0.70168345  0.62090825    -0.30300
H1211       H  0.64347044  0.73981648  0.58115174     0.13900
H1212       H  0.66104926  0.67738525  0.62400636     0.14500
C1213       C  0.54711887  0.60594460  0.49211489    -0.15100
C1214       C  0.56397986  0.62446332  0.52478782    -0.30300
H1215       H  0.54214257  0.61395863  0.45521510     0.13900
H1216       H  0.56703898  0.61439238  0.06343216     0.14500
loop_ 
_geom_bond_atom_site_label_1 
_geom_bond_atom_site_label_2 
_geom_bond_distance 
_geom_bond_site_symmetry_2 
_ccdc_geom_bond_type 
C1            C2   1.535       .  S
C1            C5   1.538       .  S
C1          C150   1.516       .  S
C1          C159   1.540   1_554  S
C2            H9   1.084       .  S
C2            C3   1.363       .  D
C3          C156   1.536       .  S
C3          C145   1.482       .  S
C4            C8   1.546       .  S
C4          C155   1.538       .  S
C4          C158   1.542       .  S
C4           H10   1.110       .  S
C5           H11   1.086   1_455  S
C5            C6   1.366       .  D
C6          C156   1.532       .  S
C6          C140   1.440       .  S
C7          C153   1.532       .  S
C7           H12   1.087       .  S
C7            C8   1.365       .  D
C8          C141   1.484       .  S
C13          C14   1.531   1_556  S
C13          C17   1.536   1_556  S
C13         C135   1.509       .  S
C13         C171   1.538       .  S
C14          H21   1.087       .  S
C14          C15   1.365       .  D
C15          C16   1.542       .  S
C15         C131   1.477       .  S
C16          C18   1.535       .  S
C16         C172   1.537   1_554  S
C16          H22   1.110       .  S
C17          H23   1.086       .  S
C17          C18   1.365       .  D
C18         C139   1.443       .  S
C19         C165   1.534       .  S
C19          H24   1.085       .  S
C19          C20   1.367       .  D
C20         C168   1.537       .  S
C20         C127   1.482       .  S
O25         Ni31   1.921       .  S
O25          C46   1.268       .  A
O26         Ni49   1.915       .  S
O26          C35   1.269       .  A
O27         Ni31   1.909       .  S
O27         Ni49   1.910       .  S
O27         Ni43   1.909       .  S
O27          H50   0.966       .  S
C28          O45   1.270       .  A
C28          O37   1.275       .  A
C28         C128   1.473       .  S
O29         Ni48   1.927       .  S
O29          C35   1.272       .  A
O30         Ni48   1.901       .  S
O30          C32   1.269       .  A
Ni31         O34   1.912       .  S
Ni31         O36   1.897       .  S
C32          O42   1.274       .  A
C32         C142   1.482       .  S
O33         Ni49   1.920       .  S
O33          C39   1.276       .  A
O34          C39   1.274       .  A
C35         C123   1.482       .  S
O36          C38   1.267       .  A
O37         Ni48   1.928       .  S
C38          O44   1.271       .  A
C38         C132   1.477       .  S
C39         C146   1.472       .  S
H40          O41   0.966       .  S
O41         Ni49   1.917       .  S
O41         Ni43   1.914       .  S
O41         Ni48   1.910       .  S
O42         Ni43   1.942       .  S
Ni43         O47   1.913       .  S
Ni43         O45   1.903       .  S
O44         Ni49   1.932       .  S
C46          O47   1.267       .  A
C46         C119   1.476       .  S
C51          C52   1.534       .  S
C51          C57   1.538       .  S
C51          C55   1.535       .  S
C51         C124   1.512       .  S
C52          H59   1.086       .  S
C52          C53   1.367       .  D
C53          C54   1.543       .  S
C53         C116   1.482       .  S
C54          C58   1.536       .  S
C54          C56   1.535       .  S
C54         H364   1.110       .  S
C55          H61   1.086       .  S
C55          C56   1.364       .  D
C56         C109   1.442       .  S
C57          H62   1.085       .  S
C57          C58   1.367       .  D
C58         C112   1.482       .  S
H60         C358   1.110       .  S
C63          C64   1.538       .  S
C63          C69   1.531       .  S
C63          C67   1.534       .  S
C63         C120   1.509       .  S
C64          H71   1.085       .  S
C64          C65   1.368       .  D
C65          C66   1.538       .  S
C65         C106   1.484       .  S
C66          C70   1.543       .  S
C66          C68   1.539       .  S
C66          H72   1.110       .  S
C67          H73   1.086       .  S
C67          C68   1.364       .  D
C68         C110   1.443       .  S
C69          H74   1.087       .  S
C69          C70   1.363       .  D
C70         C101   1.477       .  S
O75         Ni81   1.927       .  S
O75          C96   1.273   1_554  A
O76        Ni707   1.915       .  S
O76          C85   1.268       .  A
O77         Ni81   1.914       .  S
O77        Ni403   1.913   1_545  S
O77        Ni245   1.917   1_554  S
O77         H404   0.968   1_544  S
C78          O95   1.271       .  A
C78         O391   1.274   1_545  A
C78         C111   1.475       .  S
O79         Ni98   1.921       .  S
O79         C237   1.269       .  A
O80        Ni706   1.895   1_455  S
O80          C82   1.266       .  A
Ni81        O388   1.932   1_545  S
Ni81        O694   1.911   1_455  S
C82          O92   1.268       .  A
C82         C102   1.474       .  S
O83         Ni99   1.914       .  S
O83          C89   1.273       .  A
O84        Ni385   1.924       .  S
O84          C89   1.275       .  A
C85         O231   1.269   1_554  A
C85         C136   1.479       .  S
O86        Ni689   1.899       .  S
O86          C88   1.268       .  A
O87         Ni98   1.919       .  S
O87         C382   1.274       .  A
C88         O398   1.273   1_545  A
C88         C115   1.480       .  S
C89         C105   1.477       .  S
H90         O243   0.967   1_554  S
O91         Ni98   1.917       .  S
O91        Ni859   1.910       .  S
O91       Ni1005   1.909       .  S
O91         H242   0.966       .  S
O92        Ni397   1.928       .  S
Ni93         O97   1.902       .  S
Ni93        O396   1.933       .  S
Ni93        O703   1.911   1_455  S
Ni93        O229   1.916       .  S
Ni93       O1003   1.900   1_445  S
O94        Ni707   1.934       .  S
O94         C392   1.272       .  A
O95        Ni701   1.909       .  S
C96         O249   1.269       .  A
C96         C149   1.487       .  S
O97         C248   1.265       .  A
Ni98        O688   1.902       .  S
Ni99        O684   1.914   1_455  S
Ni99        O702   1.943   1_455  S
Ni99        O381   1.914       .  S
Ni99        O851   1.918   1_454  S
H100        O381   0.966       .  S
C101        H103   1.088       .  S
C101        C102   1.343       .  D
C102        H104   1.085       .  S
C105        H107   1.085       .  S
C105        C106   1.348       .  D
C106        H108   1.086       .  S
C109        C414   1.206   1_545  T
C110        C413   1.207       .  T
C111        H113   1.085       .  S
C111        C112   1.346       .  D
C112        H114   1.086   1_545  S
C115        H117   1.085   1_545  S
C115        C116   1.346       .  D
C116        H118   1.087       .  S
C119        H121   1.086       .  S
C119        C120   1.347       .  D
C120        H122   1.087       .  S
C123        H125   1.086       .  S
C123        C124   1.348       .  D
C124        H126   1.087       .  S
C127        H129   1.086       .  S
C127        C128   1.346       .  D
C128        H130   1.085       .  S
C131        H133   1.088       .  S
C131        C132   1.345       .  D
C132        H134   1.085       .  S
C135        H137   1.087       .  S
C135        C136   1.348   1_556  D
C136        H290   1.086       .  S
H138        C288   1.087       .  S
C139        C748   1.206       .  T
C140        C747   1.205   1_455  T
C141        H143   1.088       .  S
C141        C142   1.345       .  D
C142        H144   1.085       .  S
C145        H147   1.086       .  S
C145        C146   1.349       .  D
C146        H148   1.084       .  S
C149        H151   1.086       .  S
C149        C150   1.347   1_556  D
C150        H304   1.088       .  S
H152        C302   1.087       .  S
C153        C154   1.533       .  S
C153        C157   1.535       .  S
C153        C302   1.511       .  S
C154        H161   1.085       .  S
C154        C155   1.365       .  D
C155        C297   1.482       .  S
C156        C160   1.535   1_554  S
C156        H162   1.112       .  S
C157        H163   1.086   1_455  S
C157        C158   1.367       .  D
C158        C292   1.449       .  S
C159        H164   1.085       .  S
C159        C160   1.377       .  D
C160        C293   1.491       .  S
C165        C166   1.532       .  S
C165        C169   1.531       .  S
C165        C287   1.503       .  S
C166        H173   1.087       .  S
C166        C167   1.366       .  D
C167        C168   1.545       .  S
C167        C283   1.481       .  S
C168        C170   1.539       .  S
C168        H174   1.109       .  S
C169        H175   1.087       .  S
C169        C170   1.361       .  D
C170        C291   1.441       .  S
C171        H176   1.086       .  S
C171        C172   1.366       .  D
C172        C279   1.481       .  S
O177       Ni183   1.923       .  S
O177        C198   1.270       .  A
O178       Ni201   1.913       .  S
O178        C187   1.267       .  A
O179       Ni183   1.903       .  S
O179       Ni201   1.902       .  S
O179       Ni195   1.903       .  S
O179        H202   0.967       .  S
C180        O197   1.274       .  A
C180        O189   1.273       .  A
C180        C280   1.477       .  S
O181       Ni200   1.916       .  S
O181        C187   1.269       .  A
O182       Ni200   1.890       .  S
O182        C184   1.265       .  A
Ni183       O186   1.926       .  S
Ni183       O188   1.899       .  S
C184        O194   1.282       .  A
C184        C294   1.479       .  S
O185       Ni201   1.910       .  S
O185        C191   1.276       .  A
O186        C191   1.278       .  A
C187        C275   1.478       .  S
O188        C190   1.266       .  A
O189       Ni200   1.914       .  S
C190        O196   1.270       .  A
C190        C284   1.478       .  S
C191        C298   1.472       .  S
H192        O193   0.966       .  S
O193       Ni201   1.922       .  S
O193       Ni195   1.915       .  S
O193       Ni200   1.903       .  S
O194       Ni195   1.958       .  S
Ni195       O199   1.919       .  S
Ni195       O197   1.922       .  S
O196       Ni201   1.933       .  S
C198        O199   1.274       .  A
C198        C271   1.480       .  S
C203        C204   1.530       .  S
C203        C209   1.535       .  S
C203        C207   1.531       .  S
C203        C276   1.505       .  S
C204        H211   1.087       .  S
C204        C205   1.365       .  D
C205        C206   1.548       .  S
C205        C268   1.485       .  S
C206        C210   1.540       .  S
C206        C208   1.545       .  S
C206        H516   1.110   1_545  S
C207        H213   1.086       .  S
C207        C208   1.364       .  D
C208        C261   1.446       .  S
C209        H214   1.085       .  S
C209        C210   1.364       .  D
C210        C264   1.484       .  S
H212        C510   1.110       .  S
C215        C216   1.544       .  S
C215        C221   1.533       .  S
C215        C219   1.534       .  S
C215        C272   1.518       .  S
C216        H223   1.085       .  S
C216        C217   1.371       .  D
C217        C218   1.542       .  S
C217        C258   1.491       .  S
C218        C222   1.545       .  S
C218        C220   1.540       .  S
C218        H224   1.110       .  S
C219        H225   1.087       .  S
C219        C220   1.363       .  D
C220        C262   1.448       .  S
C221        H226   1.084       .  S
C221        C222   1.362       .  D
C222        C253   1.482       .  S
O227       Ni233   1.930       .  S
O227        C248   1.272       .  A
O228       Ni859   1.904       .  S
O228        C237   1.264       .  A
O229       Ni233   1.905       .  S
O229       Ni555   1.920   1_545  S
O229        H556   0.966   1_545  S
C230        O247   1.274       .  A
C230        O543   1.273   1_545  A
C230        C263   1.475       .  S
O231       Ni250   1.921       .  S
O232       Ni858   1.897   1_455  S
O232        C234   1.269       .  A
Ni233       O540   1.922   1_545  S
Ni233       O846   1.892   1_455  S
C234        O244   1.273       .  A
C234        C254   1.481       .  S
O235       Ni251   1.921       .  S
O235        C241   1.275       .  A
O236       Ni537   1.930       .  S
O236        C241   1.277       .  A
C237        C288   1.472       .  S
O238       Ni841   1.902       .  S
O238        C240   1.269       .  A
O239       Ni250   1.922       .  S
O239        C534   1.274       .  A
C240        O550   1.272   1_545  A
C240        C267   1.482       .  S
C241        C257   1.487       .  S
O243       Ni707   1.918   1_556  S
O243      Ni1157   1.916       .  S
O243       Ni250   1.912       .  S
O244       Ni549   1.942   1_455  S
Ni245       O548   1.942       .  S
Ni245       O249   1.919       .  S
Ni245       O855   1.910   1_455  S
Ni245      O1155   1.915   1_445  S
O246       Ni859   1.944       .  S
O246        C544   1.273       .  A
O247       Ni853   1.916       .  S
C248        C301   1.477       .  S
Ni250       O840   1.897       .  S
Ni251       O836   1.939   1_455  S
Ni251       O854   1.954   1_455  S
Ni251       O533   1.925       .  S
Ni251       O699   1.909   1_455  S
H252        O533   0.966       .  S
C253        H255   1.088       .  S
C253        C254   1.344       .  D
C254        H256   1.085       .  S
C257        H259   1.085       .  S
C257        C258   1.351       .  D
C258        H260   1.086       .  S
C261        C566   1.209   1_545  T
C262        C565   1.210       .  T
C263        H265   1.084       .  S
C263        C264   1.351       .  D
C264        H266   1.086   1_545  S
C267        H269   1.085   1_545  S
C267        C268   1.345       .  D
C268        H270   1.088       .  S
C271        H273   1.082       .  S
C271        C272   1.356       .  D
C272        H274   1.087       .  S
C275        H277   1.086       .  S
C275        C276   1.346       .  D
C276        H278   1.087       .  S
C279        H281   1.086       .  S
C279        C280   1.347       .  D
C280        H282   1.086       .  S
C283        H285   1.087       .  S
C283        C284   1.344       .  D
C284        H286   1.085       .  S
C287        H289   1.087       .  S
C287        C288   1.343       .  D
C291        C900   1.205       .  T
C292        C899   1.210   1_455  T
C293        H295   1.086       .  S
C293        C294   1.339       .  D
C294        H296   1.087       .  S
C297        H299   1.086       .  S
C297        C298   1.348       .  D
C298        H300   1.084       .  S
C301        H303   1.086       .  S
C301        C302   1.345       .  D
C305        C306   1.536       .  S
C305        C463   1.534   1_554  S
C305        C309   1.534       .  S
C305        C454   1.511       .  S
C306        H313   1.085       .  S
C306        C307   1.365       .  D
C307        C460   1.536   1_554  S
C307        C449   1.480       .  S
C308        C459   1.538       .  S
C308        C312   1.544       .  S
C308        C462   1.538       .  S
C308        H314   1.110       .  S
C309        H315   1.086   1_455  S
C309        C310   1.365       .  D
C310        C460   1.538   1_554  S
C310        C444   1.443       .  S
C311        C457   1.534       .  S
C311        H316   1.086       .  S
C311        C312   1.368       .  D
C312        C445   1.485       .  S
C317        C318   1.533   1_556  S
C317        C475   1.539       .  S
C317        C321   1.535   1_556  S
C317        C439   1.517       .  S
C318        H325   1.086       .  S
C318        C319   1.367       .  D
C319        C320   1.546       .  S
C319        C435   1.487       .  S
C320        C476   1.538   1_554  S
C320        C322   1.542       .  S
C320        H326   1.110       .  S
C321        H327   1.086   1_554  S
C321        C322   1.366       .  D
C322        C443   1.448       .  S
C323        C469   1.533       .  S
C323        H328   1.085       .  S
C323        C324   1.366       .  D
C324        C472   1.537       .  S
C324        C431   1.480       .  S
O329       Ni335   1.924       .  S
O329        C350   1.270       .  A
O330       Ni353   1.910       .  S
O330        C339   1.267       .  A
O331       Ni335   1.909       .  S
O331       Ni353   1.912       .  S
O331       Ni347   1.913       .  S
O331        H354   0.966       .  S
C332        O349   1.275       .  A
C332        O341   1.275       .  A
C332        C432   1.471       .  S
O333       Ni352   1.920       .  S
O333        C339   1.269       .  A
O334       Ni352   1.897       .  S
O334        C336   1.268       .  A
Ni335       O338   1.920       .  S
Ni335       O340   1.903       .  S
C336        O346   1.276       .  A
C336        C446   1.485       .  S
O337       Ni353   1.913       .  S
O337        C343   1.273       .  A
O338        C343   1.275       .  A
C339        C427   1.473       .  S
O340        C342   1.269       .  A
O341       Ni352   1.919       .  S
C342        O348   1.273       .  A
C342        C436   1.485       .  S
C343        C450   1.474       .  S
H344        O345   0.966       .  S
O345       Ni353   1.910       .  S
O345       Ni347   1.910       .  S
O345       Ni352   1.906       .  S
O346       Ni347   1.947       .  S
Ni347       O351   1.918       .  S
Ni347       O349   1.913       .  S
O348       Ni353   1.940       .  S
C350        O351   1.271       .  A
C350        C423   1.482       .  S
C355        C356   1.530       .  S
C355        C361   1.535       .  S
C355        C359   1.534       .  S
C355        C428   1.505       .  S
C356        H363   1.087       .  S
C356        C357   1.363       .  D
C357        C358   1.544       .  S
C357        C420   1.479       .  S
C358        C362   1.539       .  S
C358        C360   1.538       .  S
C359        H365   1.086       .  S
C359        C360   1.364       .  D
C360        C413   1.443       .  S
C361        H366   1.084       .  S
C361        C362   1.367       .  D
C362        C416   1.481       .  S
C367        C368   1.543       .  S
C367        C373   1.531       .  S
C367        C371   1.535       .  S
C367        C424   1.515       .  S
C368        H375   1.085       .  S
C368        C369   1.370       .  D
C369        C370   1.536       .  S
C369        C410   1.487       .  S
C370        C374   1.541       .  S
C370        C372   1.537       .  S
C370        H376   1.110       .  S
C371        H377   1.086       .  S
C371        C372   1.365       .  D
C372        C414   1.442       .  S
C373        H378   1.087       .  S
C373        C374   1.364       .  D
C374        C405   1.477       .  S
O379       Ni385   1.927       .  S
O379        C400   1.271   1_554  A
O380      Ni1011   1.920       .  S
O380        C389   1.269       .  A
O381       Ni385   1.915       .  S
O381       Ni549   1.912   1_454  S
C382        O399   1.271       .  A
C382        C415   1.472       .  S
O383       Ni402   1.924       .  S
O383        C541   1.271       .  A
O384      Ni1010   1.892   1_455  S
O384        C386   1.266       .  A
Ni385       O998   1.902   1_455  S
C386        O396   1.270   1_565  A
C386        C406   1.475       .  S
O387       Ni403   1.913       .  S
O387        C393   1.272       .  A
O388        C393   1.276       .  A
C389        O535   1.270   1_554  A
C389        C440   1.486       .  S
O390       Ni993   1.899       .  S
O390        C392   1.269       .  A
O391       Ni402   1.923       .  S
C392        C419   1.480       .  S
C393        C409   1.481       .  S
H394        O547   0.966   1_554  S
O395      Ni1163   1.914       .  S
O395       Ni701   1.909   1_565  S
O395       Ni402   1.916       .  S
O395        H546   0.966       .  S
Ni397       O401   1.905       .  S
Ni397      O1007   1.918   1_455  S
Ni397       O533   1.920       .  S
Ni397       O699   1.901   1_455  S
O398      Ni1011   1.937       .  S
O399      Ni1005   1.909       .  S
C400        O553   1.266       .  A
C400        C453   1.480       .  S
O401        C552   1.266       .  A
Ni402       O992   1.903       .  S
Ni403       O988   1.911   1_455  S
Ni403      O1006   1.943   1_455  S
Ni403      O1155   1.914   1_454  S
C405        H407   1.088       .  S
C405        C406   1.344       .  D
C406        H408   1.085       .  S
C409        H411   1.086       .  S
C409        C410   1.347       .  D
C410        H412   1.086       .  S
C415        H417   1.084       .  S
C415        C416   1.346       .  D
C416        H418   1.086       .  S
C419        H421   1.085       .  S
C419        C420   1.344       .  D
C420        H422   1.088       .  S
C423        H425   1.086       .  S
C423        C424   1.351       .  D
C424        H426   1.087       .  S
C427        H429   1.086       .  S
C427        C428   1.345       .  D
C428        H430   1.087       .  S
C431        H433   1.086       .  S
C431        C432   1.347       .  D
C432        H434   1.085       .  S
C435        H437   1.087       .  S
C435        C436   1.348       .  D
C436        H438   1.085       .  S
C439        H441   1.087       .  S
C439        C440   1.351   1_556  D
C440        H594   1.086       .  S
H442        C592   1.086       .  S
C443       C1052   1.210       .  T
C444       C1051   1.207   1_455  T
C445        H447   1.087       .  S
C445        C446   1.349       .  D
C446        H448   1.085       .  S
C449        H451   1.086       .  S
C449        C450   1.346       .  D
C450        H452   1.085       .  S
C453        H455   1.086       .  S
C453        C454   1.346   1_556  D
C454        H608   1.087       .  S
H456        C606   1.087       .  S
C457        C458   1.534       .  S
C457        C461   1.537       .  S
C457        C606   1.517       .  S
C458        H465   1.084       .  S
C458        C459   1.366       .  D
C459        C601   1.484       .  S
C460        C464   1.545       .  S
C460        H466   1.110       .  S
C461        H467   1.086       .  S
C461        C462   1.368       .  D
C462        C596   1.446       .  S
C463        H468   1.086       .  S
C463        C464   1.368       .  D
C464        C597   1.486       .  S
C469        C470   1.533       .  S
C469        C473   1.532       .  S
C469        C591   1.505       .  S
C470        H477   1.087       .  S
C470        C471   1.366       .  D
C471        C472   1.544       .  S
C471        C587   1.482       .  S
C472        C474   1.538       .  S
C472        H478   1.110       .  S
C473        H479   1.086       .  S
C473        C474   1.363       .  D
C474        C595   1.440       .  S
C475        H480   1.085       .  S
C475        C476   1.368       .  D
C476        C583   1.487       .  S
O481       Ni487   1.921       .  S
O481        C502   1.270       .  A
O482       Ni505   1.908       .  S
O482        C491   1.267       .  A
O483       Ni487   1.910       .  S
O483       Ni505   1.908       .  S
O483       Ni499   1.914       .  S
O483        H506   0.966       .  S
C484        O501   1.272       .  A
C484        O493   1.277       .  A
C484        C584   1.478       .  S
O485       Ni504   1.928       .  S
O485        C491   1.272       .  A
O486       Ni504   1.902       .  S
O486        C488   1.268       .  A
Ni487       O490   1.922       .  S
Ni487       O492   1.899       .  S
C488        O498   1.273       .  A
C488        C598   1.484       .  S
O489       Ni505   1.913       .  S
O489        C495   1.274       .  A
O490        C495   1.275       .  A
C491        C579   1.478       .  S
O492        C494   1.268       .  A
O493       Ni504   1.931       .  S
C494        O500   1.273       .  A
C494        C588   1.482       .  S
C495        C602   1.473       .  S
H496        O497   0.966       .  S
O497       Ni505   1.914       .  S
O497       Ni499   1.910       .  S
O497       Ni504   1.910       .  S
O498       Ni499   1.941       .  S
Ni499       O503   1.909       .  S
Ni499       O501   1.910       .  S
O500       Ni505   1.938       .  S
C502        O503   1.266       .  A
C502        C575   1.474       .  S
C507        C508   1.531       .  S
C507        C513   1.535       .  S
C507        C511   1.533       .  S
C507        C580   1.510       .  S
C508        H515   1.087       .  S
C508        C509   1.365       .  D
C509        C510   1.548       .  S
C509        C572   1.485       .  S
C510        C514   1.541       .  S
C510        C512   1.545       .  S
C511        H517   1.086       .  S
C511        C512   1.365       .  D
C512        C565   1.448       .  S
C513        H518   1.085       .  S
C513        C514   1.366       .  D
C514        C568   1.486       .  S
C519        C520   1.535       .  S
C519        C525   1.530       .  S
C519        C523   1.532       .  S
C519        C576   1.505       .  S
C520        H527   1.084       .  S
C520        C521   1.366       .  D
C521        C522   1.544       .  S
C521        C562   1.487       .  S
C522        C526   1.547       .  S
C522        C524   1.543       .  S
C522        H528   1.110       .  S
C523        H529   1.086       .  S
C523        C524   1.363       .  D
C524        C566   1.446       .  S
C525        H530   1.087       .  S
C525        C526   1.365       .  D
C526        C557   1.482       .  S
O531       Ni537   1.939       .  S
O531        C552   1.274       .  A
O532      Ni1163   1.905       .  S
O532        C541   1.265       .  A
O533       Ni537   1.907       .  S
C534        O551   1.274       .  A
C534        C567   1.477       .  S
O535       Ni554   1.926       .  S
O536      Ni1162   1.897   1_455  S
O536        C538   1.268       .  A
Ni537      O1150   1.900   1_455  S
C538        O548   1.274   1_565  A
C538        C558   1.483       .  S
O539       Ni555   1.922       .  S
O539        C545   1.277       .  A
O540        C545   1.275       .  A
C541        C592   1.474       .  S
O542      Ni1145   1.902       .  S
O542        C544   1.269       .  A
O543       Ni554   1.918       .  S
C544        C571   1.484       .  S
C545        C561   1.480       .  S
O547      Ni1011   1.914   1_556  S
O547       Ni853   1.923   1_565  S
O547       Ni554   1.914       .  S
Ni549       O553   1.911   1_655  S
Ni549      O1159   1.905       .  S
Ni549       O851   1.917       .  S
O550      Ni1163   1.938       .  S
O551      Ni1157   1.916       .  S
C552        C605   1.484       .  S
Ni554      O1144   1.895       .  S
Ni555      O1140   1.930   1_455  S
Ni555      O1158   1.956   1_455  S
Ni555      O1003   1.911   1_455  S
C557        H559   1.087       .  S
C557        C558   1.346       .  D
C558        H560   1.085       .  S
C561        H563   1.084       .  S
C561        C562   1.353       .  D
C562        H564   1.086       .  S
C567        H569   1.084       .  S
C567        C568   1.351       .  D
C568        H570   1.086       .  S
C571        H573   1.085       .  S
C571        C572   1.345       .  D
C572        H574   1.087       .  S
C575        H577   1.086       .  S
C575        C576   1.344       .  D
C576        H578   1.087       .  S
C579        H581   1.086       .  S
C579        C580   1.346       .  D
C580        H582   1.087       .  S
C583        H585   1.086       .  S
C583        C584   1.348       .  D
C584        H586   1.085       .  S
C587        H589   1.088       .  S
C587        C588   1.346       .  D
C588        H590   1.085       .  S
C591        H593   1.087       .  S
C591        C592   1.344       .  D
C595       C1204   1.205       .  T
C596       C1203   1.208   1_455  T
C597        H599   1.087       .  S
C597        C598   1.348       .  D
C598        H600   1.085       .  S
C601        H603   1.086       .  S
C601        C602   1.348       .  D
C602        H604   1.084       .  S
C605        H607   1.086       .  S
C605        C606   1.345       .  D
C609        C610   1.542       .  S
C609        C767   1.540   1_554  S
C609        C613   1.537       .  S
C609        C758   1.523       .  S
C610        H617   1.084       .  S
C610        C611   1.366       .  D
C611        C764   1.536       .  S
C611        C753   1.489       .  S
C612        C763   1.539       .  S
C612        C616   1.545       .  S
C612        C766   1.540       .  S
C612        H618   1.110       .  S
C613        H619   1.086       .  S
C613        C614   1.366       .  D
C614        C764   1.533       .  S
C614        C748   1.443       .  S
C615        C761   1.539       .  S
C615        H620   1.084       .  S
C615        C616   1.364       .  D
C616        C749   1.485       .  S
C621        C622   1.529       .  S
C621        C779   1.539   1_554  S
C621        C625   1.535       .  S
C621        C743   1.510   1_554  S
C622        H629   1.087       .  S
C622        C623   1.364       .  D
C623        C624   1.542       .  S
C623        C739   1.475       .  S
C624        C780   1.537   1_554  S
C624        C626   1.535       .  S
C624        H630   1.110       .  S
C625        H631   1.086       .  S
C625        C626   1.366       .  D
C626        C747   1.441       .  S
C627        C773   1.551       .  S
C627        H632   1.084       .  S
C627        C628   1.376       .  D
C628        C776   1.539       .  S
C628        C735   1.493       .  S
O633       Ni639   1.919       .  S
O633        C654   1.268       .  A
O634       Ni657   1.902       .  S
O634        C643   1.265       .  A
O635       Ni639   1.914       .  S
O635       Ni657   1.906       .  S
O635       Ni651   1.913       .  S
O635        H658   0.966       .  S
C636        O653   1.269       .  A
C636        O645   1.275       .  A
C636        C736   1.490       .  S
O637       Ni656   1.935       .  S
O637        C643   1.275       .  A
O638       Ni656   1.903       .  S
O638        C640   1.272       .  A
Ni639       O642   1.921       .  S
Ni639       O644   1.893       .  S
C640        O650   1.277       .  A
C640        C750   1.482       .  S
O641       Ni657   1.922       .  S
O641        C647   1.275       .  A
O642        C647   1.275       .  A
C643        C731   1.483       .  S
O644        C646   1.266       .  A
O645       Ni656   1.939       .  S
C646        O652   1.269       .  A
C646        C740   1.475       .  S
C647        C754   1.481       .  S
H648        O649   0.966       .  S
O649       Ni657   1.932       .  S
O649       Ni651   1.921       .  S
O649       Ni656   1.917       .  S
O650       Ni651   1.949       .  S
Ni651       O655   1.914       .  S
Ni651       O653   1.914       .  S
O652       Ni657   1.929       .  S
C654        O655   1.267       .  A
C654        C727   1.476       .  S
C659        C660   1.537       .  S
C659        C665   1.533       .  S
C659        C663   1.535       .  S
C659        C732   1.515       .  S
C660        H667   1.086       .  S
C660        C661   1.371       .  D
C661        C662   1.547       .  S
C661        C724   1.493       .  S
C662        C666   1.534       .  S
C662        C664   1.541       .  S
C662        H972   1.109       .  S
C663        H669   1.086       .  S
C663        C664   1.366       .  D
C664        C717   1.448       .  S
C665        H670   1.085       .  S
C665        C666   1.365       .  D
C666        C720   1.478       .  S
H668        C966   1.110       .  S
C671        C672   1.537       .  S
C671        C677   1.529       .  S
C671        C675   1.532       .  S
C671        C728   1.507       .  S
C672        H679   1.085       .  S
C672        C673   1.368       .  D
C673        C674   1.540       .  S
C673        C714   1.484       .  S
C674        C678   1.547       .  S
C674        C676   1.542       .  S
C674        H680   1.110       .  S
C675        H681   1.086       .  S
C675        C676   1.364       .  D
C676        C718   1.445       .  S
C677        H682   1.087       .  S
C677        C678   1.363       .  D
C678        C709   1.482       .  S
O683       Ni689   1.926       .  S
O683        C704   1.271   1_554  A
O684        C693   1.269       .  A
O685       Ni689   1.913       .  S
O685      Ni1011   1.918   1_545  S
O685       Ni853   1.916   1_554  S
O685       H1012   0.967   1_554  S
C686        O703   1.274       .  A
C686        O999   1.276   1_545  A
C686        C719   1.468       .  S
O687       Ni706   1.913       .  S
O687        C845   1.263       .  A
O688        C690   1.269       .  A
Ni689       O996   1.924   1_545  S
C690        O700   1.271       .  A
C690        C710   1.482       .  S
O691       Ni707   1.920       .  S
O691        C697   1.275       .  A
O692       Ni993   1.919       .  S
O692        C697   1.275       .  A
C693        O839   1.270   1_554  A
C693        C744   1.481       .  S
O694        C696   1.270       .  A
O695       Ni706   1.911       .  S
O695        C990   1.275       .  A
C696       O1006   1.275   1_545  A
C696        C723   1.488       .  S
C697        C713   1.477       .  S
H698        O851   0.966   1_554  S
O699       Ni706   1.904       .  S
O699        H850   0.966       .  S
O700      Ni1005   1.935       .  S
Ni701      O1004   1.924       .  S
Ni701       O705   1.890       .  S
Ni701       O837   1.909       .  S
O702       C1000   1.274       .  A
C704        O857   1.273       .  A
C704        C757   1.494       .  S
O705        C856   1.260       .  A
Ni707       O989   1.912       .  S
H708        O989   0.966       .  S
C709        H711   1.088       .  S
C709        C710   1.343       .  D
C710        H712   1.085       .  S
C713        H715   1.085       .  S
C713        C714   1.349       .  D
C714        H716   1.086       .  S
C717       C1022   1.210   1_545  T
C718       C1021   1.208       .  T
C719        H721   1.085       .  S
C719        C720   1.344       .  D
C720        H722   1.086   1_545  S
C723        H725   1.085   1_545  S
C723        C724   1.350       .  D
C724        H726   1.087       .  S
C727        H729   1.086       .  S
C727        C728   1.348       .  D
C728        H730   1.087       .  S
C731        H733   1.086       .  S
C731        C732   1.344       .  D
C732        H734   1.087       .  S
C735        H737   1.086       .  S
C735        C736   1.349       .  D
C736        H738   1.085       .  S
C739        H741   1.088       .  S
C739        C740   1.343       .  D
C740        H742   1.085       .  S
C743        H745   1.087       .  S
C743        C744   1.349   1_556  D
C744        H898   1.086       .  S
H746        C896   1.087       .  S
C749        H751   1.088       .  S
C749        C750   1.344       .  D
C750        H752   1.085       .  S
C753        H755   1.086       .  S
C753        C754   1.351       .  D
C754        H756   1.084       .  S
C757        H759   1.086       .  S
C757        C758   1.353   1_556  D
C758        H912   1.087       .  S
H760        C910   1.088       .  S
C761        C762   1.531       .  S
C761        C765   1.529       .  S
C761        C910   1.507       .  S
C762        H769   1.084       .  S
C762        C763   1.366       .  D
C763        C905   1.479       .  S
C764        C768   1.537   1_554  S
C764        H770   1.112       .  S
C765        H771   1.087       .  S
C765        C766   1.361       .  D
C766        C900   1.441       .  S
C767        H772   1.083       .  S
C767        C768   1.379       .  D
C768        C901   1.496       .  S
C773        C774   1.525       .  S
C773        C777   1.537       .  S
C773        C895   1.520       .  S
C774        H781   1.087       .  S
C774        C775   1.359       .  D
C775        C776   1.544       .  S
C775        C891   1.479       .  S
C776        C778   1.540       .  S
C776        H782   1.110       .  S
C777        H783   1.086   1_655  S
C777        C778   1.365       .  D
C778        C899   1.449       .  S
C779        H784   1.084       .  S
C779        C780   1.369       .  D
C780        C887   1.487       .  S
O785       Ni791   1.919       .  S
O785        C806   1.270       .  A
O786       Ni809   1.909       .  S
O786        C795   1.265       .  A
O787       Ni791   1.911       .  S
O787       Ni809   1.908       .  S
O787       Ni803   1.899       .  S
O787        H810   0.966       .  S
C788        O805   1.262       .  A
C788        O797   1.269       .  A
C788        C888   1.477       .  S
O789       Ni808   1.912       .  S
O789        C795   1.270       .  A
O790       Ni808   1.886       .  S
O790        C792   1.267       .  A
Ni791       O794   1.921       .  S
Ni791       O796   1.895       .  S
C792        O802   1.289       .  A
C792        C902   1.476       .  S
O793       Ni809   1.906       .  S
O793        C799   1.271       .  A
O794        C799   1.273       .  A
C795        C883   1.482       .  S
O796        C798   1.267       .  A
O797       Ni808   1.933       .  S
C798        O804   1.270       .  A
C798        C892   1.476       .  S
C799        C906   1.471       .  S
H800        O801   0.967       .  S
O801       Ni809   1.941       .  S
O801       Ni803   1.921       .  S
O801       Ni808   1.918       .  S
O802       Ni803   1.978       .  S
Ni803       O807   1.923       .  S
Ni803       O805   1.899       .  S
O804       Ni809   1.940       .  S
C806        O807   1.272       .  A
C806        C879   1.488       .  S
C811        C812   1.530       .  S
C811        C817   1.530       .  S
C811        C815   1.532       .  S
C811        C884   1.508       .  S
C812        H819   1.087       .  S
C812        C813   1.369       .  D
C813        C814   1.547       .  S
C813        C876   1.486       .  S
C814        C818   1.541       .  S
C814        C816   1.542       .  S
C814       H1124   1.110   1_545  S
C815        H821   1.086       .  S
C815        C816   1.366       .  D
C816        C869   1.442   1_545  S
C817        H822   1.083       .  S
C817        C818   1.363       .  D
C818        C872   1.486       .  S
H820       C1118   1.110       .  S
C823        C824   1.542       .  S
C823        C829   1.529       .  S
C823        C827   1.535       .  S
C823        C880   1.516       .  S
C824        H831   1.084       .  S
C824        C825   1.369       .  D
C825        C826   1.537       .  S
C825        C866   1.491       .  S
C826        C830   1.546       .  S
C826        C828   1.540       .  S
C826        H832   1.109       .  S
C827        H833   1.086       .  S
C827        C828   1.367       .  D
C828        C870   1.447       .  S
C829        H834   1.087       .  S
C829        C830   1.365       .  D
C830        C861   1.482       .  S
O835       Ni841   1.931       .  S
O835        C856   1.271       .  A
O836        C845   1.277       .  A
O837       Ni841   1.915       .  S
O837      Ni1163   1.910   1_545  S
O837       H1164   0.967   1_545  S
C838        O855   1.273       .  A
C838       O1151   1.273   1_545  A
C838        C871   1.471       .  S
O839       Ni858   1.921       .  S
O840        C842   1.268       .  A
Ni841      O1148   1.927   1_545  S
C842        O852   1.273       .  A
C842        C862   1.479       .  S
O843       Ni859   1.903       .  S
O843        C849   1.268       .  A
O844      Ni1145   1.937       .  S
O844        C849   1.275       .  A
C845        C896   1.479       .  S
O846        C848   1.268   1_545  A
O847       Ni858   1.920       .  S
O847       C1142   1.272       .  A
C848       O1158   1.279       .  A
C848        C875   1.487   1_565  S
C849        C865   1.479       .  S
O851       Ni858   1.917       .  S
O852      Ni1157   1.939       .  S
Ni853      O1156   1.942       .  S
Ni853       O857   1.931       .  S
O854       C1152   1.280       .  A
C856        C909   1.466       .  S
Ni859      O1141   1.915       .  S
H860       O1141   0.967       .  S
C861        H863   1.088       .  S
C861        C862   1.345       .  D
C862        H864   1.084       .  S
C865        H867   1.084       .  S
C865        C866   1.348       .  D
C866        H868   1.086       .  S
C869       C1174   1.206       .  T
C870       C1173   1.209       .  T
C871        H873   1.083       .  S
C871        C872   1.351       .  D
C872        H874   1.086   1_545  S
C875        H877   1.085   1_545  S
C875        C876   1.351       .  D
C876        H878   1.088       .  S
C879        H881   1.086       .  S
C879        C880   1.354       .  D
C880        H882   1.087       .  S
C883        H885   1.086       .  S
C883        C884   1.343       .  D
C884        H886   1.087       .  S
C887        H889   1.086       .  S
C887        C888   1.346       .  D
C888        H890   1.085       .  S
C891        H893   1.088       .  S
C891        C892   1.341       .  D
C892        H894   1.084       .  S
C895        H897   1.087       .  S
C895        C896   1.336       .  D
C901        H903   1.086       .  S
C901        C902   1.340       .  D
C902        H904   1.083       .  S
C905        H907   1.086       .  S
C905        C906   1.348       .  D
C906        H908   1.083       .  S
C909        H911   1.082       .  S
C909        C910   1.341       .  D
C913        C914   1.540       .  S
C913       C1071   1.530   1_554  S
C913        C917   1.534       .  S
C913       C1062   1.513       .  S
C914        H921   1.084       .  S
C914        C915   1.370       .  D
C915       C1068   1.542       .  S
C915       C1057   1.491       .  S
C916       C1067   1.538       .  S
C916        C920   1.546       .  S
C916       C1070   1.540       .  S
C916        H922   1.110       .  S
C917        H923   1.086       .  S
C917        C918   1.365       .  D
C918       C1068   1.541       .  S
C918       C1052   1.448       .  S
C919       C1065   1.535       .  S
C919        H924   1.086       .  S
C919        C920   1.370       .  D
C920       C1053   1.488       .  S
C925        C926   1.531       .  S
C925       C1083   1.536   1_554  S
C925        C929   1.533       .  S
C925       C1047   1.510   1_554  S
C926        H933   1.087       .  S
C926        C927   1.365       .  D
C927        C928   1.546       .  S
C927       C1043   1.483       .  S
C928       C1084   1.537   1_554  S
C928        C930   1.540       .  S
C928        H934   1.110       .  S
C929        H935   1.086   1_654  S
C929        C930   1.365       .  D
C930       C1051   1.443       .  S
C931       C1077   1.551       .  S
C931        H936   1.085       .  S
C931        C932   1.376       .  D
C932       C1080   1.539       .  S
C932       C1039   1.493       .  S
O937       Ni943   1.921       .  S
O937        C958   1.269       .  A
O938       Ni961   1.899       .  S
O938        C947   1.263       .  A
O939       Ni943   1.917       .  S
O939       Ni961   1.907       .  S
O939       Ni955   1.918       .  S
O939        H962   0.966       .  S
C940        O957   1.272       .  A
C940        O949   1.275       .  A
C940       C1040   1.492       .  S
O941       Ni960   1.929       .  S
O941        C947   1.273       .  A
O942       Ni960   1.899       .  S
O942        C944   1.269       .  A
Ni943       O946   1.928       .  S
Ni943       O948   1.898       .  S
C944        O954   1.278       .  A
C944       C1054   1.487       .  S
O945       Ni961   1.918       .  S
O945        C951   1.273       .  A
O946        C951   1.275       .  A
C947       C1035   1.477       .  S
O948        C950   1.267       .  A
O949       Ni960   1.934       .  S
C950        O956   1.272       .  A
C950       C1044   1.481       .  S
C951       C1058   1.483       .  S
H952        O953   0.967       .  S
O953       Ni961   1.925       .  S
O953       Ni955   1.918       .  S
O953       Ni960   1.917       .  S
O954       Ni955   1.953       .  S
Ni955       O959   1.913       .  S
Ni955       O957   1.921       .  S
O956       Ni961   1.937       .  S
C958        O959   1.269       .  A
C958       C1031   1.477       .  S
C963        C964   1.533       .  S
C963        C969   1.531       .  S
C963        C967   1.533       .  S
C963       C1036   1.507       .  S
C964        H971   1.087       .  S
C964        C965   1.368       .  D
C965        C966   1.547       .  S
C965       C1028   1.488       .  S
C966        C970   1.537       .  S
C966        C968   1.541       .  S
C967        H973   1.086       .  S
C967        C968   1.365       .  D
C968       C1021   1.445       .  S
C969        H974   1.085       .  S
C969        C970   1.364       .  D
C970       C1024   1.478       .  S
C975        C976   1.539       .  S
C975        C981   1.527       .  S
C975        C979   1.535       .  S
C975       C1032   1.508       .  S
C976        H983   1.085       .  S
C976        C977   1.369       .  D
C977        C978   1.538       .  S
C977       C1018   1.484       .  S
C978        C982   1.547       .  S
C978        C980   1.540       .  S
C978        H984   1.110       .  S
C979        H985   1.086       .  S
C979        C980   1.366       .  D
C980       C1022   1.448       .  S
C981        H986   1.087       .  S
C981        C982   1.360       .  D
C982       C1013   1.478       .  S
O987       Ni993   1.923       .  S
O987       C1008   1.269       .  A
O988        C997   1.267       .  A
O989       Ni993   1.910       .  S
O989      Ni1157   1.916   1_554  S
C990       O1007   1.276       .  A
C990       C1023   1.468       .  S
O991      Ni1010   1.915   1_455  S
O991       C1149   1.263   1_455  A
O992        C994   1.268       .  A
C994       O1004   1.267   1_565  A
C994       C1014   1.476       .  S
O995      Ni1011   1.912       .  S
O995       C1001   1.272       .  A
O996       C1001   1.275       .  A
C997       O1143   1.270   1_554  A
C997       C1048   1.479       .  S
O998       C1000   1.269       .  A
O999      Ni1010   1.917       .  S
C1000      C1027   1.485       .  S
C1001      C1017   1.477       .  S
H1002      O1155   0.965       .  S
O1003     Ni1010   1.905       .  S
O1003      H1154   0.966       .  S
Ni1005     O1009   1.901       .  S
Ni1005     O1141   1.919       .  S
C1008      O1161   1.269   1_554  A
C1008      C1061   1.480   1_554  S
O1009      C1160   1.264       .  A
C1013      H1015   1.088       .  S
C1013      C1014   1.339       .  D
C1014      H1016   1.085       .  S
C1017      H1019   1.085       .  S
C1017      C1018   1.347       .  D
C1018      H1020   1.086       .  S
C1023      H1025   1.085       .  S
C1023      C1024   1.346       .  D
C1024      H1026   1.086       .  S
C1027      H1029   1.085       .  S
C1027      C1028   1.348       .  D
C1028      H1030   1.088       .  S
C1031      H1033   1.086       .  S
C1031      C1032   1.349       .  D
C1032      H1034   1.087       .  S
C1035      H1037   1.086       .  S
C1035      C1036   1.342       .  D
C1036      H1038   1.087       .  S
C1039      H1041   1.086       .  S
C1039      C1040   1.350       .  D
C1040      H1042   1.085       .  S
C1043      H1045   1.088       .  S
C1043      C1044   1.345       .  D
C1044      H1046   1.085       .  S
C1047      H1049   1.087       .  S
C1047      C1048   1.346   1_556  D
C1048      H1202   1.086       .  S
H1050      C1200   1.087       .  S
C1053      H1055   1.087       .  S
C1053      C1054   1.350       .  D
C1054      H1056   1.085       .  S
C1057      H1059   1.086       .  S
C1057      C1058   1.350       .  D
C1058      H1060   1.084       .  S
C1061      H1063   1.086       .  S
C1061      C1062   1.349   1_556  D
C1062      H1216   1.087       .  S
H1064      C1214   1.087       .  S
C1065      C1066   1.529       .  S
C1065      C1069   1.532       .  S
C1065      C1214   1.508       .  S
C1066      H1073   1.084       .  S
C1066      C1067   1.363       .  D
C1067      C1209   1.481       .  S
C1068      C1072   1.547   1_554  S
C1068      H1074   1.110   1_554  S
C1069      H1075   1.086       .  S
C1069      C1070   1.365       .  D
C1070      C1204   1.440       .  S
C1071      H1076   1.087       .  S
C1071      C1072   1.364       .  D
C1072      C1205   1.482       .  S
C1077      C1078   1.522       .  S
C1077      C1081   1.537       .  S
C1077      C1199   1.513       .  S
C1078      H1085   1.088       .  S
C1078      C1079   1.356       .  D
C1079      C1080   1.542       .  S
C1079      C1195   1.473       .  S
C1080      C1082   1.537       .  S
C1080      H1086   1.110       .  S
C1081      H1087   1.086   1_655  S
C1081      C1082   1.365       .  D
C1082      C1203   1.446       .  S
C1083      H1088   1.084       .  S
C1083      C1084   1.368       .  D
C1084      C1191   1.486       .  S
O1089     Ni1095   1.918       .  S
O1089      C1110   1.267       .  A
O1090     Ni1113   1.904       .  S
O1090      C1099   1.264       .  A
O1091     Ni1095   1.916       .  S
O1091     Ni1113   1.910       .  S
O1091     Ni1107   1.906       .  S
O1091      H1114   0.966       .  S
C1092      O1109   1.267       .  A
C1092      O1101   1.274       .  A
C1092      C1192   1.474       .  S
O1093     Ni1112   1.929       .  S
O1093      C1099   1.273       .  A
O1094     Ni1112   1.899       .  S
O1094      C1096   1.270       .  A
Ni1095     O1098   1.916       .  S
Ni1095     O1100   1.893       .  S
C1096      O1106   1.274       .  A
C1096      C1206   1.481       .  S
O1097     Ni1113   1.906       .  S
O1097      C1103   1.272       .  A
O1098      C1103   1.273       .  A
C1099      C1187   1.482       .  S
O1100      C1102   1.267       .  A
O1101     Ni1112   1.932       .  S
C1102      O1108   1.267       .  A
C1102      C1196   1.471       .  S
C1103      C1210   1.467       .  S
H1104      O1105   0.966       .  S
O1105     Ni1113   1.923       .  S
O1105     Ni1107   1.920       .  S
O1105     Ni1112   1.918       .  S
O1106     Ni1107   1.940       .  S
Ni1107     O1111   1.913       .  S
Ni1107     O1109   1.899       .  S
O1108     Ni1113   1.927       .  S
C1110      O1111   1.266       .  A
C1110      C1183   1.476       .  S
C1115      C1116   1.534       .  S
C1115      C1121   1.531       .  S
C1115      C1119   1.534       .  S
C1115      C1188   1.511       .  S
C1116      H1123   1.086       .  S
C1116      C1117   1.369       .  D
C1117      C1118   1.547       .  S
C1117      C1180   1.488       .  S
C1118      C1122   1.539       .  S
C1118      C1120   1.542       .  S
C1119      H1125   1.086       .  S
C1119      C1120   1.367       .  D
C1120      C1173   1.447       .  S
C1121      H1126   1.084       .  S
C1121      C1122   1.362       .  D
C1122      C1176   1.482       .  S
C1127      C1128   1.538       .  S
C1127      C1133   1.531       .  S
C1127      C1131   1.532       .  S
C1127      C1184   1.507       .  S
C1128      H1135   1.084       .  S
C1128      C1129   1.368       .  D
C1129      C1130   1.537       .  S
C1129      C1170   1.484       .  S
C1130      C1134   1.544       .  S
C1130      C1132   1.537       .  S
C1130      H1136   1.110       .  S
C1131      H1137   1.086       .  S
C1131      C1132   1.363       .  D
C1132      C1174   1.441       .  S
C1133      H1138   1.087       .  S
C1133      C1134   1.366       .  D
C1134      C1165   1.480       .  S
O1139     Ni1145   1.931       .  S
O1139      C1160   1.274       .  A
O1140      C1149   1.276       .  A
O1141     Ni1145   1.917       .  S
C1142      O1159   1.270       .  A
C1142      C1175   1.470       .  S
O1143     Ni1162   1.924       .  S
O1144      C1146   1.268       .  A
C1146      O1156   1.275   1_565  A
C1146      C1166   1.480       .  S
O1147     Ni1163   1.908       .  S
O1147      C1153   1.271       .  A
O1148      C1153   1.276       .  A
C1149      C1200   1.474       .  S
O1150      C1152   1.270       .  A
O1151     Ni1162   1.922       .  S
C1152      C1179   1.487       .  S
C1153      C1169   1.475       .  S
O1155     Ni1162   1.915       .  S
Ni1157     O1161   1.917       .  S
C1160      C1213   1.479       .  S
C1165      H1167   1.088       .  S
C1165      C1166   1.347       .  D
C1166      H1168   1.085       .  S
C1169      H1171   1.084       .  S
C1169      C1170   1.347       .  D
C1170      H1172   1.086       .  S
C1175      H1177   1.084       .  S
C1175      C1176   1.349       .  D
C1176      H1178   1.086       .  S
C1179      H1181   1.085       .  S
C1179      C1180   1.350       .  D
C1180      H1182   1.087       .  S
C1183      H1185   1.086       .  S
C1183      C1184   1.346       .  D
C1184      H1186   1.087       .  S
C1187      H1189   1.086       .  S
C1187      C1188   1.343       .  D
C1188      H1190   1.087       .  S
C1191      H1193   1.086       .  S
C1191      C1192   1.346       .  D
C1192      H1194   1.084       .  S
C1195      H1197   1.089       .  S
C1195      C1196   1.338       .  D
C1196      H1198   1.085       .  S
C1199      H1201   1.088       .  S
C1199      C1200   1.333       .  D
C1205      H1207   1.087       .  S
C1205      C1206   1.344       .  D
C1206      H1208   1.085       .  S
C1209      H1211   1.086       .  S
C1209      C1210   1.348       .  D
C1210      H1212   1.083       .  S
C1213      H1215   1.086       .  S
C1213      C1214   1.342       .  D
