geometry optimzed in LAMMPS
_audit_creation_date              2020-12-01 
_audit_creation_method            'lammps2cif' 
_symmetry_space_group_name_H-M    'P1' 
_symmetry_Int_Tables_number       1 
_symmetry_cell_setting            triclinic 
loop_ 
_symmetry_equiv_pos_as_xyz 
  x,y,z 
_cell_length_a                    26.26233901 
_cell_length_b                    27.06066650062123 
_cell_length_c                    23.169364012037978 
_cell_angle_alpha                 89.03632270969966 
_cell_angle_beta                  88.94906319285084 
_cell_angle_gamma                 89.84216925083379 
loop_ 
_atom_site_label 
_atom_site_type_symbol 
_atom_site_fract_x 
_atom_site_fract_y 
_atom_site_fract_z 
_atom_site_charge 
C1          C  0.65343825  0.12294320  0.17845420     0.87400
C2          C  0.68641700  0.16892894  0.18729422    -0.52800
C3          C  0.71131686  0.16893891  0.23874684     0.10300
C4          C  0.69871942  0.12352398  0.27716640     0.21300
C5          C  0.69049779  0.07946159  0.18708078    -0.53600
C6          C  0.71550588  0.08005303  0.23881182     0.10400
C7          C  0.61687621  0.12097889  0.23046970    -0.53100
C8          C  0.64017552  0.12163033  0.28223692     0.11000
H9          H  0.69063957  0.19746829  0.15427474     0.15500
H10         H  0.71524419  0.12333206  0.32039728     0.01300
H11         H  0.69725784  0.05254108  0.15376931     0.15800
H12         H  0.57570560  0.12150251  0.22650512     0.15600
C13         C  0.80709680  0.25080231  0.31670131     0.87400
C14         C  0.78248140  0.04607576  0.30626652    -0.52800
C15         C  0.75711676  0.04449726  0.25481922     0.10300
C16         C  0.76025299  0.25425023  0.21889566     0.21300
C17         C  0.77562899  0.20472506  0.30489696    -0.53600
C18         C  0.74965931  0.20667467  0.25429499     0.10400
C19         C  0.84279384  0.25687482  0.26431780    -0.53100
C20         C  0.81844483  0.25873467  0.21329426     0.11000
H21         H  0.77983230  0.07616041  0.33635797     0.15500
H22         H  0.74289032  0.25554174  0.17607713     0.01300
H23         H  0.77364459  0.17431296  0.33567391     0.15800
H24         H  0.88392419  0.25980265  0.26727484     0.15600
C25         C  0.31701944  0.14702272  0.18898173     0.87400
C26         C  0.28069803  0.10282935  0.18920460    -0.52800
C27         C  0.24781063  0.10061108  0.23559262     0.10300
C28         C  0.25371882  0.14406431  0.27761740     0.21300
C29         C  0.28182633  0.19219022  0.19302928    -0.53600
C30         C  0.24827149  0.19097254  0.23892152     0.10400
C31         C  0.34335505  0.14396346  0.24706123    -0.53100
C32         C  0.31063293  0.14250556  0.29353780     0.11000
H33         H  0.27994820  0.07620640  0.15463514     0.15500
H34         H  0.22672357  0.14275125  0.31507789     0.01300
H35         H  0.28108636  0.22112398  0.16000987     0.15800
H36         H  0.38450651  0.14381250  0.25121796     0.15600
C37         C  0.13154294  0.26931018  0.19948780     0.87400
C38         C  0.17314504  0.06222813  0.19224812    -0.52800
C39         C  0.20591544  0.06384248  0.23721891     0.10300
C40         C  0.19252480  0.26460368  0.28727204     0.21300
C41         C  0.17207147  0.22869864  0.19471168    -0.53600
C42         C  0.20395232  0.22549324  0.24052082     0.10400
C43         C  0.10403260  0.25938281  0.25684638    -0.53100
C44         C  0.13535572  0.25739421  0.30329723     0.11000
H45         H  0.17281608  0.09026564  0.15810359     0.15500
H46         H  0.21833657  0.26270897  0.32468818     0.01300
H47         H  0.17591667  0.20495584  0.15750818     0.15800
H48         H  0.06280838  0.25701665  0.26067345     0.15600
O49         O  0.02384353  0.01151834  0.05735934    -0.70900
O50         O  0.94731033  0.04786750  0.44800192    -0.71100
O51         O  0.92179730  0.01919516  0.04780215    -0.70900
O52         O  0.04726653  0.02425178  0.44628630    -0.70900
O53         O  0.01251512  0.19794689  0.44485470    -0.70900
O54         O  0.91663677  0.19614219  0.05435011    -0.70900
O55         O  0.91367618  0.22276514  0.44992245    -0.70900
O56         O  0.01857735  0.19758078  0.05872923    -0.71100
V57         V  0.97642417  0.00402375  0.99661533     1.35200
V58         V  0.97030568  0.20294882  0.99861154     1.35200
C59         C  0.03483348  0.23636347  0.08181407     0.78400
C60         C  0.90671353  0.26715811  0.43384973     0.78400
C61         C  0.89888827  0.23416116  0.07851510     0.78300
C62         C  0.03936966  0.23375903  0.42660118     0.78300
O63         O  0.51772796  0.06962678  0.42661897    -0.70900
O64         O  0.43223835  0.07222307  0.04864408    -0.71100
O65         O  0.41657503  0.07159817  0.44024839    -0.70900
O66         O  0.53330641  0.06178488  0.03813945    -0.70900
O67         O  0.53899193  0.14093312  0.05101060    -0.70900
O68         O  0.41783469  0.15113389  0.42557321    -0.70900
O69         O  0.43690109  0.15220862  0.05338242    -0.70900
O70         O  0.52081012  0.14944776  0.41512895    -0.71100
V71         V  0.47244797  0.07858662  0.49048092     1.35200
V72         V  0.48845391  0.15085059  0.99439803     1.35200
C73         C  0.53494093  0.10689448  0.39924290     0.78400
C74         C  0.41823595  0.11188037  0.07231432     0.78400
C75         C  0.39879868  0.10943396  0.41495635     0.78300
C76         C  0.55394511  0.09755192  0.06309686     0.78300
C77         C  0.07315586  0.22713239  0.37578041    -0.15500
C78         C  0.11364980  0.25589051  0.36294214    -0.30700
H79         H  0.07830470  0.95075836  0.33896966     0.13500
H80         H  0.12781769  0.28163861  0.39426212     0.14100
C81         C  0.07078218  0.23297877  0.12996796    -0.15500
C82         C  0.09644438  0.27249763  0.14845254    -0.30700
H83         H  0.07630901  0.19717664  0.15089487     0.13500
H84         H  0.10275888  0.04638644  0.11172611     0.14100
C85         C  0.33063638  0.14196285  0.35265021    -0.15500
C86         C  0.36008249  0.10417195  0.37024998    -0.30700
H87         H  0.32900425  0.17602546  0.37675129     0.13500
H88         H  0.36013029  0.06994536  0.34631827     0.14100
C89         C  0.35359613  0.14933315  0.13756796    -0.15500
C90         C  0.38205938  0.11021644  0.12189464    -0.30700
H91         H  0.35612907  0.18341918  0.11219507     0.13500
H92         H  0.37784093  0.07538806  0.14550366     0.14100
C93         C  0.83555946  0.24590736  0.37243093    -0.15500
C94         C  0.86928175  0.27964186  0.38925544    -0.30700
H95         H  0.83241691  0.21120298  0.39655844     0.13500
H96         H  0.87231140  0.31499468  0.36654214     0.14100
C97         C  0.84678559  0.26705673  0.15855712    -0.15500
C98         C  0.86002687  0.22904030  0.12507215    -0.30700
H99         H  0.86344526  0.30330980  0.15075539     0.13500
H100        H  0.84221693  0.03344390  0.11675497     0.14100
C101        C  0.61090531  0.12616353  0.33752869    -0.15500
C102        C  0.56815738  0.09997422  0.34789186    -0.30700
H103        H  0.62456531  0.15139399  0.36972201     0.13500
H104        H  0.55751585  0.07141133  0.31802071     0.14100
C105        C  0.59275037  0.08880623  0.10741392    -0.15500
C106        C  0.62494659  0.12474811  0.12235437    -0.30700
H107        H  0.59207348  0.05396718  0.13141799     0.13500
H108        H  0.62647336  0.15869789  0.09661938     0.14100
C109        C  0.64417278  0.09428909  0.66861143     0.87400
C110        C  0.67462002  0.14125416  0.68133633    -0.52800
C111        C  0.69832804  0.14009838  0.73387297     0.10300
C112        C  0.68646051  0.09274226  0.76916891     0.21300
C113        C  0.68290839  0.05242686  0.67612646    -0.53600
C114        C  0.70622838  0.05205777  0.72863483     0.10400
C115        C  0.60640033  0.08768530  0.71883911    -0.53100
C116        C  0.62804403  0.08712851  0.77131949     0.11000
H117        H  0.67892913  0.17055778  0.64932657     0.15500
H118        H  0.70180524  0.09172843  0.81309017     0.01300
H119        H  0.69226614  0.02754516  0.64139827     0.15800
H120        H  0.56562168  0.08354188  0.71331247     0.15600
C121        C  0.80065452  0.21773695  0.81049972     0.87400
C122        C  0.77634267  0.02261309  0.79290094    -0.52800
C123        C  0.74937532  0.01886501  0.74310507     0.10300
C124        C  0.75110607  0.22294940  0.71448246     0.21300
C125        C  0.76564024  0.17317473  0.80070093    -0.53600
C126        C  0.73838317  0.17629032  0.75054355     0.10400
C127        C  0.83486661  0.22124258  0.75662314    -0.53100
C128        C  0.80914967  0.22419409  0.70653792     0.11000
H129        H  0.77191472  0.05229476  0.82326985     0.15500
H130        H  0.73290420  0.22518656  0.67225054     0.01300
H131        H  0.76217717  0.14327001  0.83208222     0.15800
H132        H  0.87621747  0.22089967  0.75794821     0.15600
C133        C  0.31527723  0.09995829  0.69643635     0.87400
C134        C  0.28191393  0.05440887  0.70826823    -0.52800
C135        C  0.25039263  0.05753155  0.75570939     0.10300
C136        C  0.25663590  0.10660808  0.78855813     0.21300
C137        C  0.27767239  0.14330313  0.69414703    -0.53600
C138        C  0.24699135  0.14761138  0.74223926     0.10400
C139        C  0.34464265  0.10677884  0.75180501    -0.53100
C140        C  0.31460114  0.10980105  0.80044901     0.11000
H141        H  0.27963766  0.02411994  0.67821745     0.15500
H142        H  0.23171924  0.10927782  0.82763349     0.01300
H143        H  0.27507794  0.16823842  0.65706727     0.15800
H144        H  0.38599396  0.10658674  0.75277522     0.15600
C145        C  0.13980694  0.23777988  0.70102167     0.87400
C146        C  0.17085463  0.02763775  0.71489348    -0.52800
C147        C  0.20441261  0.02530234  0.75910066     0.10300
C148        C  0.19735106  0.22521448  0.79094661     0.21300
C149        C  0.17517887  0.19286134  0.69704127    -0.53600
C150        C  0.20546870  0.18558658  0.74384819     0.10400
C151        C  0.10967273  0.23073526  0.75716088    -0.53100
C152        C  0.13903049  0.22460327  0.80478103     0.11000
H153        H  0.17214829  0.05697560  0.68223335     0.15500
H154        H  0.22192859  0.22013268  0.82909053     0.01300
H155        H  0.17715119  0.16951371  0.65936297     0.15800
H156        H  0.06830026  0.23151496  0.75928724     0.15600
O157        O  0.04393446  0.01410757  0.56190670    -0.70900
O158        O  0.92907714  0.99863938  0.93529352    -0.71100
O159        O  0.94561252  0.03754603  0.56377071    -0.70900
O160        O  0.03159742  0.99285005  0.94465246    -0.70900
O161        O  0.02473954  0.20659865  0.94255687    -0.70900
O162        O  0.91416344  0.21382468  0.56477424    -0.70900
O163        O  0.92099185  0.20537367  0.93903633    -0.70900
O164        O  0.01308350  0.18972873  0.56124569    -0.71100
V165        V  0.99569692  0.02946597  0.50469498     1.35200
V166        V  0.96389989  0.20758797  0.50521779     1.35200
C167        C  0.03965212  0.22323426  0.58313107     0.78400
C168        C  0.90242731  0.24672617  0.92379069     0.78400
C169        C  0.90829477  0.25483621  0.58919676     0.78300
C170        C  0.04075926  0.24861145  0.92564746     0.78300
O171        O  0.52764355  0.07443077  0.92265933    -0.70900
O172        O  0.42666199  0.08417166  0.55474130    -0.71100
O173        O  0.42515703  0.08472046  0.93316539    -0.70900
O174        O  0.52874761  0.08265757  0.54077367    -0.70900
O175        O  0.52682323  0.16258240  0.52976400    -0.70900
O176        O  0.43877877  0.16373466  0.93724824    -0.70900
O177        O  0.42558319  0.16371067  0.54030160    -0.70900
O178        O  0.54054394  0.15258336  0.93645098    -0.71100
V179        V  0.47968651  0.07477085  0.98566442     1.35200
V180        V  0.47272218  0.15515778  0.47774187     1.35200
C181        C  0.55153104  0.11377206  0.90934748     0.78400
C182        C  0.41071879  0.12637824  0.56949322     0.78400
C183        C  0.41462477  0.12819500  0.91608395     0.78300
C184        C  0.54600995  0.12470616  0.55327966     0.78300
C185        C  0.07855712  0.25455157  0.87792103    -0.15500
C186        C  0.11421855  0.22085792  0.86297902    -0.30700
H187        H  0.08087290  0.90749325  0.86383250     0.13500
H188        H  0.12148984  0.18875356  0.89034408     0.14100
C189        C  0.07544171  0.21161394  0.62959998    -0.15500
C190        C  0.10707927  0.24621668  0.64907970    -0.30700
H191        H  0.07449977  0.17505605  0.64969055     0.13500
H192        H  0.07879070  0.02587287  0.66117141     0.14100
C193        C  0.33802821  0.10908543  0.85840731    -0.15500
C194        C  0.37878029  0.13754703  0.86865999    -0.30700
H195        H  0.32525146  0.08159085  0.89009198     0.13500
H196        H  0.38870749  0.16708408  0.83814977     0.14100
C197        C  0.34896118  0.09479444  0.64295951    -0.15500
C198        C  0.37655922  0.13247498  0.62039152    -0.30700
H199        H  0.35050677  0.05916091  0.62201544     0.13500
H200        H  0.37358941  0.16880778  0.63943546     0.14100
C201        C  0.83222861  0.21440271  0.86459268    -0.15500
C202        C  0.86419730  0.25113441  0.87804318    -0.30700
H203        H  0.83163048  0.18048931  0.89037309     0.13500
H204        H  0.86304656  0.28567531  0.85346911     0.14100
C205        C  0.83563355  0.22681030  0.64980040    -0.15500
C206        C  0.87361250  0.25917214  0.63948074    -0.30700
H207        H  0.82511585  0.20048199  0.61724321     0.13500
H208        H  0.89295447  0.03549720  0.66139793     0.14100
C209        C  0.59640479  0.07971274  0.82418161    -0.15500
C210        C  0.59105535  0.11555391  0.86301922    -0.30700
H211        H  0.57108194  0.04801396  0.82622114     0.13500
H212        H  0.61355164  0.14905587  0.85781081     0.14100
C213        C  0.58467671  0.13033527  0.59764374    -0.15500
C214        C  0.61729901  0.09405697  0.61163775    -0.30700
H215        H  0.58326396  0.16374290  0.62301947     0.13500
H216        H  0.62007135  0.06140696  0.58504224     0.14100
C217        C  0.64619656  0.37900650  0.18322556     0.87400
C218        C  0.68422821  0.42158595  0.18875023    -0.52800
C219        C  0.70965328  0.42140587  0.23993455     0.10300
C220        C  0.69292740  0.37913278  0.28116453     0.21300
C221        C  0.67787700  0.33241780  0.19436427    -0.53600
C222        C  0.70364677  0.33259638  0.24546844     0.10400
C223        C  0.61036412  0.38309623  0.23552487    -0.53100
C224        C  0.63465035  0.38335459  0.28679647     0.11000
H225        H  0.69088609  0.44805815  0.15392919     0.15500
H226        H  0.71055970  0.37905675  0.32389837     0.01300
H227        H  0.68021170  0.30338920  0.16292333     0.15800
H228        H  0.56927553  0.38652745  0.23223401     0.15600
C229        C  0.80965592  0.50136851  0.31411475     0.87400
C230        C  0.76878127  0.29370197  0.31201869    -0.52800
C231        C  0.74353791  0.29542467  0.26040192     0.10300
C232        C  0.76092235  0.50442843  0.21767398     0.21300
C233        C  0.77733564  0.45532987  0.30371846    -0.53600
C234        C  0.75043637  0.45727141  0.25363734     0.10400
C235        C  0.84432492  0.50634817  0.26075928    -0.53100
C236        C  0.81883924  0.50832030  0.21054982     0.11000
H237        H  0.76222752  0.31908222  0.34701942     0.15500
H238        H  0.74319585  0.50541900  0.17513965     0.01300
H239        H  0.77521247  0.42515575  0.33489611     0.15800
H240        H  0.88558140  0.50860309  0.26245282     0.15600
C241        C  0.31393089  0.37992313  0.19688763     0.87400
C242        C  0.27392063  0.33953499  0.20469803    -0.52800
C243        C  0.24110498  0.34595765  0.25011086     0.10300
C244        C  0.25223655  0.39310624  0.28518321     0.21300
C245        C  0.28334055  0.42824655  0.19352928    -0.53600
C246        C  0.25121018  0.43573175  0.23982564     0.10400
C247        C  0.34100482  0.38118692  0.25439741    -0.53100
C248        C  0.30917442  0.38813357  0.30089769     0.11000
H249        H  0.26970375  0.30963538  0.17446805     0.15500
H250        H  0.22581061  0.39857531  0.32251573     0.01300
H251        H  0.28523124  0.45334877  0.15646298     0.15800
H252        H  0.38204686  0.37754914  0.25804590     0.15600
C253        C  0.14119536  0.52066698  0.19588241     0.87400
C254        C  0.16173054  0.31690157  0.20878603    -0.52800
C255        C  0.19461488  0.31476014  0.25400417     0.10300
C256        C  0.20214574  0.51607964  0.28360717     0.21300
C257        C  0.18012069  0.47872773  0.19216085    -0.53600
C258        C  0.21177566  0.47533777  0.23803925     0.10400
C259        C  0.11351198  0.51289155  0.25363151    -0.53100
C260        C  0.14470524  0.51050205  0.30008420     0.11000
H261        H  0.16199600  0.34741845  0.17765767     0.15500
H262        H  0.22821159  0.51405890  0.32078019     0.01300
H263        H  0.18210702  0.45328608  0.15638188     0.15800
H264        H  0.07225773  0.51106541  0.25751059     0.15600
O265        O  0.01865944  0.27769926  0.06355445    -0.70900
O266        O  0.93392814  0.30033922  0.45523050    -0.71100
O267        O  0.91651286  0.27594967  0.06320919    -0.70900
O268        O  0.03347993  0.27536666  0.45008343    -0.70900
O269        O  0.01833692  0.44866242  0.43814214    -0.70900
O270        O  0.92458114  0.44620942  0.05720011    -0.70900
O271        O  0.91926756  0.47416050  0.44345237    -0.70900
O272        O  0.02602189  0.44871293  0.05938981    -0.71100
V273        V  0.96870156  0.27977281  0.00528908     1.35200
V274        V  0.97689602  0.45456530  0.00049893     1.35200
C275        C  0.04189586  0.48735405  0.08297808     0.78400
C276        C  0.91303757  0.51844123  0.42683834     0.78400
C277        C  0.90649323  0.48362695  0.08214238     0.78300
C278        C  0.04663208  0.48407612  0.42124008     0.78300
O279        O  0.51973972  0.32818712  0.43577798    -0.70900
O280        O  0.42192560  0.34697064  0.05982503    -0.71100
O281        O  0.41895839  0.32730655  0.44929889    -0.70900
O282        O  0.51931985  0.31857002  0.05091048    -0.70900
O283        O  0.54191084  0.39568911  0.04443182    -0.70900
O284        O  0.41714529  0.40683178  0.43459783    -0.70900
O285        O  0.44453343  0.42405341  0.05268521    -0.70900
O286        O  0.51997199  0.40802990  0.42357819    -0.71100
V287        V  0.47436660  0.33601172  0.49943712     1.35200
V288        V  0.48938760  0.40659858  0.99084627     1.35200
C289        C  0.53511231  0.36580354  0.40778589     0.78400
C290        C  0.41817946  0.39076137  0.07765269     0.78400
C291        C  0.39975575  0.36439196  0.42397471     0.78300
C292        C  0.54777015  0.35322017  0.06684700     0.78300
C293        C  0.08200790  0.47780089  0.37137436    -0.15500
C294        C  0.12250845  0.50726053  0.35968932    -0.30700
H295        H  0.06198554  0.19918370  0.34534728     0.13500
H296        H  0.13581837  0.53279139  0.39173145     0.14100
C297        C  0.07880153  0.48399310  0.12966495    -0.15500
C298        C  0.10579001  0.52341481  0.14558162    -0.30700
H299        H  0.08393029  0.44854445  0.15157558     0.13500
H300        H  0.09215213  0.30788648  0.12616566     0.14100
C301        C  0.33034778  0.39237309  0.35936367    -0.15500
C302        C  0.36163523  0.35679698  0.37909081    -0.30700
H303        H  0.32620772  0.42711371  0.38176168     0.13500
H304        H  0.36308720  0.32161258  0.35710124     0.14100
C305        C  0.34860287  0.37048122  0.14564053    -0.15500
C306        C  0.38422756  0.40265879  0.12685806    -0.30700
H307        H  0.34419625  0.33590296  0.12303371     0.13500
H308        H  0.38807271  0.43813095  0.14758329     0.14100
C309        C  0.83952363  0.49730775  0.36891329    -0.15500
C310        C  0.87469602  0.53075176  0.38317791    -0.30700
H311        H  0.83620114  0.46323512  0.39423959     0.13500
H312        H  0.87794138  0.56548336  0.35918455     0.14100
C313        C  0.84563714  0.51517719  0.15475069    -0.15500
C314        C  0.86969684  0.47703111  0.13024757    -0.30700
H315        H  0.84959670  0.55241169  0.13704974     0.13500
H316        H  0.84551596  0.19232899  0.13560170     0.14100
C317        C  0.60671373  0.38908630  0.34228217    -0.15500
C318        C  0.56734574  0.35945829  0.35592124    -0.30700
H319        H  0.61880708  0.41720239  0.37196210     0.13500
H320        H  0.55887429  0.32857093  0.32829488     0.14100
C321        C  0.58446525  0.34518993  0.11343003    -0.15500
C322        C  0.61816085  0.38026355  0.12697349    -0.30700
H323        H  0.58063496  0.31214668  0.14044983     0.13500
H324        H  0.62268099  0.41262637  0.09892561     0.14100
C325        C  0.64265522  0.35232616  0.68142589     0.87400
C326        C  0.68296595  0.39330541  0.68466858    -0.52800
C327        C  0.70961081  0.39267675  0.73529111     0.10300
C328        C  0.69242077  0.35129889  0.77748151     0.21300
C329        C  0.67237621  0.30455885  0.69243884    -0.53600
C330        C  0.69993417  0.30418584  0.74212032     0.10400
C331        C  0.60862507  0.35813921  0.73507646    -0.53100
C332        C  0.63458604  0.35761693  0.78532574     0.11000
H333        H  0.68980748  0.41915271  0.64922596     0.15500
H334        H  0.71136581  0.35086510  0.81948495     0.01300
H335        H  0.67200929  0.27482691  0.66187506     0.15800
H336        H  0.56756821  0.36283855  0.73344592     0.15600
C337        C  0.81194928  0.47081218  0.80867130     0.87400
C338        C  0.76469896  0.26256761  0.80644334    -0.52800
C339        C  0.73809479  0.26520607  0.75593151     0.10300
C340        C  0.76001439  0.47620848  0.71445995     0.21300
C341        C  0.77997824  0.42462913  0.79745286    -0.53600
C342        C  0.75121503  0.42793009  0.74863474     0.10400
C343        C  0.84483205  0.47822389  0.75412992    -0.53100
C344        C  0.81777631  0.48065975  0.70474755     0.11000
H345        H  0.76068483  0.28868812  0.84112647     0.15500
H346        H  0.74049585  0.47820225  0.67293926     0.01300
H347        H  0.77930994  0.39346049  0.82733993     0.15800
H348        H  0.88619135  0.47918920  0.75436693     0.15600
C349        C  0.31655359  0.35135610  0.70251001     0.87400
C350        C  0.28586995  0.30416384  0.71450689    -0.52800
C351        C  0.25222875  0.30672971  0.76015263     0.10300
C352        C  0.25449193  0.35699055  0.79150875     0.21300
C353        C  0.27668898  0.39245947  0.69701014    -0.53600
C354        C  0.24457654  0.39646101  0.74368744     0.10400
C355        C  0.34348884  0.36114375  0.75869256    -0.53100
C356        C  0.31149765  0.36366114  0.80574803     0.11000
H357        H  0.28592741  0.27350198  0.68476059     0.15500
H358        H  0.22828250  0.35930332  0.82953591     0.01300
H359        H  0.27439689  0.41684682  0.65940050     0.15800
H360        H  0.38468678  0.36327699  0.76145275     0.15600
C361        C  0.13816655  0.48664350  0.70089557     0.87400
C362        C  0.17490505  0.28138512  0.71185435    -0.52800
C363        C  0.20591282  0.27527241  0.75805361     0.10300
C364        C  0.19619146  0.47484865  0.79039888     0.21300
C365        C  0.17345035  0.44159460  0.69718686    -0.53600
C366        C  0.20362032  0.43465969  0.74409992     0.10400
C367        C  0.10826337  0.48007796  0.75739704    -0.53100
C368        C  0.13828120  0.47433673  0.80461437     0.11000
H369        H  0.17837712  0.31283698  0.68221826     0.15500
H370        H  0.22105723  0.47018454  0.82837636     0.01300
H371        H  0.17532786  0.41783569  0.65986315     0.15800
H372        H  0.06692185  0.48113086  0.76014114     0.15600
O373        O  0.03361712  0.26729286  0.56567571    -0.70900
O374        O  0.91860413  0.28521631  0.94742032    -0.71100
O375        O  0.93494257  0.29117508  0.57160290    -0.70900
O376        O  0.02074036  0.28661849  0.94763054    -0.70900
O377        O  0.03012224  0.45950932  0.94388155    -0.70900
O378        O  0.91940483  0.46568182  0.55854752    -0.70900
O379        O  0.92714716  0.45766050  0.94162440    -0.70900
O380        O  0.01750556  0.43970650  0.55472479    -0.71100
V381        V  0.98354954  0.28208816  0.51046527     1.35200
V382        V  0.96918470  0.45854867  0.49858402     1.35200
C383        C  0.04315811  0.47290388  0.57822292     0.78400
C384        C  0.90908879  0.49925706  0.92646274     0.78400
C385        C  0.91407752  0.50709914  0.58247485     0.78300
C386        C  0.04597332  0.50175316  0.92795407     0.78300
O387        O  0.51064525  0.31561231  0.93452078    -0.70900
O388        O  0.42859978  0.34037672  0.56328033    -0.71100
O389        O  0.41300164  0.34411849  0.94482960    -0.70900
O390        O  0.53011170  0.34159937  0.54996589    -0.70900
O391        O  0.52679916  0.42140014  0.53848853    -0.70900
O392        O  0.43772245  0.42054541  0.93658401    -0.70900
O393        O  0.42545778  0.41994928  0.54932513    -0.70900
O394        O  0.53545742  0.39214772  0.92922376    -0.71100
V395        V  0.46681221  0.33274503  0.99738306     1.35200
V396        V  0.47238534  0.41256233  0.48657010     1.35200
C397        C  0.53777801  0.34867348  0.91018754     0.78400
C398        C  0.41165143  0.38210277  0.57817032     0.78400
C399        C  0.40791820  0.38657420  0.92195289     0.78300
C400        C  0.54648370  0.38393082  0.56261198     0.78300
C401        C  0.08355287  0.50775070  0.88046928    -0.15500
C402        C  0.11502400  0.47141029  0.86310507    -0.30700
H403        H  0.07479805  0.28778643  0.85127096     0.13500
H404        H  0.11888630  0.43748609  0.88835185     0.14100
C405        C  0.07648900  0.46069514  0.62661354    -0.15500
C406        C  0.10610251  0.49549349  0.64879223    -0.30700
H407        H  0.07562863  0.42363650  0.64537670     0.13500
H408        H  0.10852471  0.28227489  0.62770036     0.14100
C409        C  0.33243445  0.36555559  0.86457056    -0.15500
C410        C  0.37167888  0.39569018  0.87518738    -0.30700
H411        H  0.32034114  0.33772305  0.89617804     0.13500
H412        H  0.38122449  0.42504027  0.84428242     0.14100
C413        C  0.35189008  0.34747563  0.65073000    -0.15500
C414        C  0.37716248  0.38671882  0.62855084    -0.30700
H415        H  0.35604517  0.31179360  0.63025887     0.13500
H416        H  0.37166779  0.42297479  0.64718731     0.14100
C417        C  0.84358466  0.46653104  0.86235927    -0.15500
C418        C  0.87224230  0.50430239  0.87960871    -0.30700
H419        H  0.84497026  0.43137349  0.88567915     0.13500
H420        H  0.86935241  0.53999414  0.85766071     0.14100
C421        C  0.84264061  0.48153642  0.64690938    -0.15500
C422        C  0.88095734  0.51275846  0.63399235    -0.30700
H423        H  0.83054530  0.45475572  0.61560386     0.13500
H424        H  0.88141586  0.28758888  0.67069364     0.14100
C425        C  0.60911718  0.36487386  0.84191487    -0.15500
C426        C  0.56903673  0.33715960  0.85872173    -0.30700
H427        H  0.62315267  0.39369514  0.86949637     0.13500
H428        H  0.55782236  0.30603991  0.83279874     0.14100
C429        C  0.58526186  0.38973386  0.60729238    -0.15500
C430        C  0.61268492  0.35103555  0.62638339    -0.30700
H431        H  0.58846697  0.42527795  0.62803171     0.13500
H432        H  0.61034323  0.31615425  0.60398437     0.14100
C433        C  0.64256753  0.62430435  0.18452558     0.87400
C434        C  0.67869427  0.66881038  0.18913276    -0.52800
C435        C  0.70497083  0.66982174  0.23982765     0.10300
C436        C  0.69063902  0.62701221  0.28143481     0.21300
C437        C  0.67653910  0.57945030  0.19524669    -0.53600
C438        C  0.70310757  0.58101116  0.24561234     0.10400
C439        C  0.60726546  0.62709240  0.23738878    -0.53100
C440        C  0.63234202  0.62900810  0.28803440     0.11000
H441        H  0.68403751  0.69527845  0.15400270     0.15500
H442        H  0.70862013  0.62738311  0.32394083     0.01300
H443        H  0.67959524  0.55054349  0.16377907     0.15800
H444        H  0.56602527  0.62908169  0.23490563     0.15600
C445        C  0.81293185  0.74531082  0.30692192     0.87400
C446        C  0.77155355  0.54460970  0.30988278    -0.52800
C447        C  0.74504850  0.54573864  0.25913719     0.10300
C448        C  0.76081084  0.74984952  0.21240820     0.21300
C449        C  0.77504600  0.70290463  0.30078822    -0.53600
C450        C  0.74667319  0.70535651  0.25173233     0.10400
C451        C  0.84585332  0.74390307  0.25211226    -0.53100
C452        C  0.81885402  0.74624422  0.20257093     0.11000
H453        H  0.76550269  0.57022149  0.34478025     0.15500
H454        H  0.74050490  0.75136191  0.17127158     0.01300
H455        H  0.77145899  0.67424462  0.33364652     0.15800
H456        H  0.88710655  0.74071516  0.25238930     0.15600
C457        C  0.32055670  0.64661058  0.20504837     0.87400
C458        C  0.28230535  0.60383192  0.20276032    -0.52800
C459        C  0.24890464  0.60113122  0.24865726     0.10300
C460        C  0.25619491  0.64323651  0.29230147     0.21300
C461        C  0.28796867  0.69291306  0.21057194    -0.53600
C462        C  0.25344173  0.69141922  0.25507923     0.10400
C463        C  0.34622233  0.64045852  0.26308382    -0.53100
C464        C  0.31298520  0.63892465  0.30912237     0.11000
H465        H  0.28084729  0.57847780  0.16695072     0.15500
H466        H  0.22879154  0.64225864  0.32938141     0.01300
H467        H  0.28823085  0.72236113  0.17806442     0.15800
H468        H  0.38732129  0.63909634  0.26760253     0.15600
C469        C  0.13650276  0.76044197  0.20004990     0.87400
C470        C  0.17294420  0.56736596  0.20298882    -0.52800
C471        C  0.20563383  0.56547752  0.24815125     0.10300
C472        C  0.19502343  0.76741794  0.28971934     0.21300
C473        C  0.17782115  0.72061068  0.20330818    -0.53600
C474        C  0.20802547  0.72349460  0.25045180     0.10400
C475        C  0.10765681  0.75639438  0.25750182    -0.53100
C476        C  0.13803418  0.76004233  0.30454184     0.11000
H477        H  0.17271765  0.59788943  0.17190855     0.15500
H478        H  0.21989186  0.77025758  0.32778760     0.01300
H479        H  0.18370883  0.69309482  0.17020434     0.15800
H480        H  0.06660025  0.75187121  0.26073105     0.15600
O481        O  0.02462945  0.52872466  0.06641420    -0.70900
O482        O  0.94131327  0.55135112  0.44724016    -0.71100
O483        O  0.92258079  0.52597710  0.06673028    -0.70900
O484        O  0.04100298  0.52544972  0.44516897    -0.70900
O485        O  0.01782180  0.69591707  0.44458806    -0.70900
O486        O  0.93065646  0.66342815  0.06919271    -0.70900
O487        O  0.91886824  0.71983303  0.44481734    -0.70900
O488        O  0.03199240  0.66687833  0.06877359    -0.71100
V489        V  0.97457437  0.53129950  0.00872660     1.35200
V490        V  0.98197846  0.66228862  0.01063290     1.35200
C491        C  0.04593909  0.70899278  0.08525870     0.78400
C492        C  0.91340955  0.76333302  0.42501161     0.78400
C493        C  0.91127868  0.70412730  0.08405682     0.78300
C494        C  0.04530227  0.73151885  0.42700571     0.78300
O495        O  0.52481807  0.57267594  0.44474696    -0.70900
O496        O  0.42454243  0.56942429  0.06177733    -0.71100
O497        O  0.42361544  0.57273264  0.45443365    -0.70900
O498        O  0.52361015  0.55418255  0.04727952    -0.70900
O499        O  0.53490570  0.63353257  0.05180050    -0.70900
O500        O  0.42131078  0.65231590  0.44030477    -0.70900
O501        O  0.43491726  0.64910869  0.06281011    -0.70900
O502        O  0.52408234  0.65210478  0.42901365    -0.71100
V503        V  0.47777773  0.58189672  0.50641425     1.35200
V504        V  0.48207948  0.64292712  0.99941000     1.35200
C505        C  0.54006931  0.60955360  0.41538748     0.78400
C506        C  0.41532980  0.61018887  0.08493658     0.78400
C507        C  0.40427662  0.60986348  0.42926672     0.78300
C508        C  0.54687914  0.59057959  0.06828611     0.78300
C509        C  0.08081165  0.72499133  0.37819948    -0.15500
C510        C  0.11631922  0.75872010  0.36356603    -0.30700
H511        H  0.07161820  0.45019603  0.34016603     0.13500
H512        H  0.12585812  0.78819146  0.39268711     0.14100
C513        C  0.08066151  0.71333786  0.13428115    -0.15500
C514        C  0.10304076  0.75623983  0.14781572    -0.30700
H515        H  0.08759616  0.68041608  0.16051858     0.13500
H516        H  0.10199176  0.55831414  0.12208645     0.14100
C517        C  0.33269524  0.63793224  0.36852084    -0.15500
C518        C  0.36643320  0.60291850  0.38395262    -0.30700
H519        H  0.32629391  0.67002283  0.39524564     0.13500
H520        H  0.37054560  0.57010802  0.35779367     0.14100
C521        C  0.35677259  0.64979736  0.15396698    -0.15500
C522        C  0.38329075  0.61029466  0.13728826    -0.30700
H523        H  0.35944707  0.68396124  0.12871753     0.13500
H524        H  0.37874076  0.57552622  0.16102021     0.14100
C525        C  0.84352160  0.74042086  0.36149543    -0.15500
C526        C  0.87850352  0.77368156  0.37686006    -0.30700
H527        H  0.83855341  0.70709641  0.38784233     0.13500
H528        H  0.88295544  0.80792407  0.35215374     0.14100
C529        C  0.84433214  0.74329661  0.14524038    -0.15500
C530        C  0.87568269  0.70527753  0.13386416    -0.30700
H531        H  0.83921242  0.77314401  0.11397381     0.13500
H532        H  0.86472443  0.44006616  0.14859790     0.14100
C533        C  0.60512916  0.63650426  0.34344798    -0.15500
C534        C  0.57353236  0.60176974  0.36474418    -0.30700
H535        H  0.61009384  0.67112402  0.36569428     0.13500
H536        H  0.57175514  0.56619465  0.34373324     0.14100
C537        C  0.58459475  0.58457637  0.11413755    -0.15500
C538        C  0.61402603  0.62304806  0.12874484    -0.30700
H539        H  0.58464283  0.55058022  0.13973790     0.13500
H540        H  0.61485080  0.65616383  0.10152811     0.14100
C541        C  0.64592136  0.60073740  0.68810390     0.87400
C542        C  0.68547324  0.64226210  0.69138331    -0.52800
C543        C  0.71201605  0.64228678  0.74218236     0.10300
C544        C  0.69590799  0.60032805  0.78408986     0.21300
C545        C  0.67615613  0.55344065  0.69890707    -0.53600
C546        C  0.70432718  0.55346090  0.74797010     0.10400
C547        C  0.61199432  0.60635568  0.74154782    -0.53100
C548        C  0.63779151  0.60619391  0.79201429     0.11000
H549        H  0.69136034  0.66820850  0.65589984     0.15500
H550        H  0.71528815  0.59979773  0.82588819     0.01300
H551        H  0.67617810  0.52387067  0.66813217     0.15800
H552        H  0.57095513  0.61096004  0.73941437     0.15600
C553        C  0.81389866  0.72416500  0.81238677     0.87400
C554        C  0.77313266  0.51349994  0.80797455    -0.52800
C555        C  0.74530560  0.51632834  0.75847056     0.10300
C556        C  0.76204793  0.72510906  0.71789833     0.21300
C557        C  0.78019924  0.67824266  0.80534767    -0.53600
C558        C  0.75222601  0.67897773  0.75565490     0.10400
C559        C  0.84691209  0.72733699  0.75746842    -0.53100
C560        C  0.81964939  0.72765768  0.70821192     0.11000
H561        H  0.76801903  0.53806979  0.84406508     0.15500
H562        H  0.74266380  0.72570139  0.67631172     0.01300
H563        H  0.77839196  0.64912598  0.83790773     0.15800
H564        H  0.88827816  0.72819845  0.75745617     0.15600
C565        C  0.31660311  0.60024335  0.70438312     0.87400
C566        C  0.28397264  0.55396658  0.71341322    -0.52800
C567        C  0.24982042  0.55637695  0.75846015     0.10300
C568        C  0.25252872  0.60549762  0.79160320     0.21300
C569        C  0.27854803  0.64287782  0.69912128    -0.53600
C570        C  0.24548711  0.64677453  0.74485319     0.10400
C571        C  0.34233839  0.60720101  0.76197619    -0.53100
C572        C  0.30914644  0.60895274  0.80811625     0.11000
H573        H  0.28407279  0.52376835  0.68302878     0.15500
H574        H  0.22528384  0.60761149  0.82871878     0.01300
H575        H  0.27801126  0.66829249  0.66231192     0.15800
H576        H  0.38346651  0.60696660  0.76637093     0.15600
C577        C  0.14121757  0.73948984  0.70177652     0.87400
C578        C  0.17320873  0.53024951  0.71095945    -0.52800
C579        C  0.20426553  0.52450504  0.75687795     0.10300
C580        C  0.20140015  0.72824573  0.78977418     0.21300
C581        C  0.17487553  0.69319140  0.69860235    -0.53600
C582        C  0.20602171  0.68647327  0.74487018     0.10400
C583        C  0.11279611  0.73498872  0.75962128    -0.53100
C584        C  0.14387025  0.72928954  0.80596520     0.11000
H585        H  0.17650144  0.56161997  0.68115318     0.15500
H586        H  0.22715834  0.72356066  0.82696408     0.01300
H587        H  0.17492193  0.66837592  0.66222185     0.15800
H588        H  0.07156745  0.73711899  0.76376832     0.15600
O589        O  0.03813859  0.51714381  0.56077105    -0.70900
O590        O  0.92464084  0.53741595  0.95111511    -0.71100
O591        O  0.94053348  0.54306776  0.56371970    -0.70900
O592        O  0.02637120  0.53942833  0.95108504    -0.70900
O593        O  0.03345683  0.65770116  0.95239286    -0.70900
O594        O  0.91652289  0.71484356  0.56064657    -0.70900
O595        O  0.93184926  0.65481004  0.95301401    -0.70900
O596        O  0.01506279  0.69076807  0.56116738    -0.71100
V597        V  0.98980460  0.53278102  0.50391268     1.35200
V598        V  0.96749475  0.70686467  0.50278320     1.35200
C599        C  0.04011635  0.72497152  0.58377759     0.78400
C600        C  0.91422012  0.69279596  0.92780560     0.78400
C601        C  0.90982935  0.75679087  0.58273576     0.78300
C602        C  0.05045772  0.69658073  0.92823006     0.78300
O603        O  0.51107100  0.56038740  0.93132991    -0.70900
O604        O  0.43051357  0.58753960  0.56849035    -0.71100
O605        O  0.41148073  0.57850473  0.94677754    -0.70900
O606        O  0.53218995  0.58812373  0.55866175    -0.70900
O607        O  0.53099167  0.66759388  0.54345534    -0.70900
O608        O  0.42996590  0.65676639  0.94682965    -0.70900
O609        O  0.42979976  0.66716478  0.55446488    -0.70900
O610        O  0.53004620  0.63833733  0.93645186    -0.71100
V611        V  0.46800684  0.56710449  0.99668523     1.35200
V612        V  0.47658556  0.65828055  0.49188351     1.35200
C613        C  0.53546272  0.59715333  0.91172211     0.78400
C614        C  0.41459576  0.62969828  0.58306422     0.78400
C615        C  0.40301509  0.62223470  0.92855663     0.78300
C616        C  0.54943213  0.63053877  0.56954236     0.78300
C617        C  0.08596311  0.69285159  0.87846413    -0.15500
C618        C  0.12198788  0.72656565  0.86530653    -0.30700
H619        H  0.08233981  0.54218690  0.85563580     0.13500
H620        H  0.13123998  0.75528172  0.89552395     0.14100
C621        C  0.07462597  0.71399990  0.63194429    -0.15500
C622        C  0.10720991  0.74806829  0.65064675    -0.30700
H623        H  0.07305548  0.67771833  0.65267874     0.13500
H624        H  0.10730061  0.53199636  0.62846495     0.14100
C625        C  0.32854183  0.60474317  0.86747677    -0.15500
C626        C  0.36703566  0.63385946  0.88243469    -0.30700
H627        H  0.31653425  0.57380031  0.89483634     0.13500
H628        H  0.37611792  0.66600215  0.85537311     0.14100
C629        C  0.35293738  0.59621461  0.65368484    -0.15500
C630        C  0.37958272  0.63502272  0.63275300    -0.30700
H631        H  0.35649499  0.56072165  0.63265094     0.13500
H632        H  0.37476667  0.67123776  0.65168312     0.14100
C633        C  0.84534993  0.72490133  0.86650759    -0.15500
C634        C  0.87748366  0.68803602  0.88071256    -0.30700
H635        H  0.84368252  0.75763479  0.89305181     0.13500
H636        H  0.87780328  0.65418611  0.85613704     0.14100
C637        C  0.84383607  0.72697449  0.65056869    -0.15500
C638        C  0.87602241  0.76274571  0.63326588    -0.30700
H639        H  0.83667494  0.69551488  0.62338871     0.13500
H640        H  0.89030111  0.54165534  0.66402465     0.14100
C641        C  0.61141625  0.61274319  0.84853696    -0.15500
C642        C  0.56613919  0.59121046  0.85874068    -0.30700
H643        H  0.62943887  0.63413912  0.88169486     0.13500
H644        H  0.55137318  0.56575598  0.82736597     0.14100
C645        C  0.58795202  0.63707841  0.61417820    -0.15500
C646        C  0.61591640  0.59885140  0.63323855    -0.30700
H647        H  0.59078760  0.67279586  0.63459893     0.13500
H648        H  0.61397451  0.56388605  0.61093911     0.14100
C649        C  0.64697705  0.87977671  0.18923940     0.87400
C650        C  0.67969909  0.92491727  0.20103140    -0.52800
C651        C  0.70729598  0.92095133  0.25047855     0.10300
C652        C  0.69711450  0.87272644  0.28477331     0.21300
C653        C  0.68441007  0.83606889  0.19111417    -0.53600
C654        C  0.71138264  0.83233288  0.24128548     0.10400
C655        C  0.61286535  0.87384684  0.24293102    -0.53100
C656        C  0.63896364  0.87028483  0.29297785     0.11000
H657        H  0.68106496  0.95635712  0.17156379     0.15500
H658        H  0.71655850  0.86991325  0.32641203     0.01300
H659        H  0.68929808  0.81176209  0.15481425     0.15800
H660        H  0.57155374  0.87256516  0.24152115     0.15600
C661        C  0.81166935  0.99840303  0.32105490     0.87400
C662        C  0.78024959  0.79217990  0.30121482    -0.52800
C663        C  0.75176201  0.79439061  0.25194036     0.10300
C664        C  0.76727742  0.99630238  0.22182330     0.21300
C665        C  0.77148561  0.95746186  0.31702878    -0.53600
C666        C  0.74775644  0.95650462  0.26482579     0.10400
C667        C  0.84806777  0.98953601  0.27032467    -0.53100
C668        C  0.82528890  0.98825665  0.21859687     0.11000
H669        H  0.77914724  0.81955578  0.33471298     0.15500
H670        H  0.75109504  0.99510884  0.17837730     0.01300
H671        H  0.76253836  0.93256298  0.35285848     0.15800
H672        H  0.88844983  0.98195441  0.27530068     0.15600
C673        C  0.31465320  0.88347754  0.19395227     0.87400
C674        C  0.27381080  0.84351025  0.19802245    -0.52800
C675        C  0.24160722  0.84701441  0.24443983     0.10300
C676        C  0.25401655  0.89104830  0.28390624     0.21300
C677        C  0.28532946  0.93227787  0.19558641    -0.53600
C678        C  0.25296919  0.93675582  0.24211686     0.10400
C679        C  0.34232835  0.87982344  0.25089717    -0.53100
C680        C  0.31129155  0.88332726  0.29860336     0.11000
H681        H  0.26957719  0.81524405  0.16568162     0.15500
H682        H  0.22803464  0.89423821  0.32202116     0.01300
H683        H  0.28658543  0.95914066  0.16018229     0.15800
H684        H  0.38335662  0.87514041  0.25318438     0.15600
C685        C  0.14014663  0.01590321  0.19154361     0.87400
C686        C  0.16553336  0.80946675  0.20270793    -0.52800
C687        C  0.19699321  0.81331186  0.24902295     0.10300
C688        C  0.20213027  0.01814678  0.27856319     0.21300
C689        C  0.17809319  0.97276353  0.19311167    -0.53600
C690        C  0.21053622  0.97331671  0.23865984     0.10400
C691        C  0.11309124  0.01420391  0.25021834    -0.53100
C692        C  0.14499674  0.01485986  0.29606049     0.11000
H693        H  0.16562455  0.83652907  0.16750381     0.15500
H694        H  0.22864304  0.01915113  0.31532107     0.01300
H695        H  0.17986187  0.94459950  0.16024089     0.15800
H696        H  0.07188878  0.01257391  0.25510210     0.15600
O697        O  0.02804539  0.74688220  0.06015145    -0.70900
O698        O  0.93976123  0.79742729  0.44612999    -0.71100
O699        O  0.92592112  0.74321718  0.05802061    -0.70900
O700        O  0.03886306  0.77337501  0.44937095    -0.70900
O701        O  0.02414157  0.94805522  0.43468982    -0.70900
O702        O  0.91585427  0.94097119  0.06960330    -0.70900
O703        O  0.92453903  0.97080097  0.44513414    -0.70900
O704        O  0.01731295  0.93267323  0.07535580    -0.71100
V705        V  0.97935635  0.73913637  0.00136563     1.35200
V706        V  0.96989361  0.92852258  0.01531915     1.35200
C707        C  0.03682662  0.97376543  0.08676419     0.78400
C708        C  0.91821417  0.01515013  0.42871177     0.78400
C709        C  0.90067281  0.98502156  0.07697186     0.78300
C710        C  0.05225504  0.98407546  0.41967323     0.78300
O711        O  0.53553293  0.84025793  0.43427500    -0.70900
O712        O  0.42502962  0.85194906  0.06300387    -0.71100
O713        O  0.43577128  0.81824649  0.43204287    -0.70900
O714        O  0.52179348  0.82232575  0.05430834    -0.70900
O715        O  0.54411361  0.89951496  0.04743979    -0.70900
O716        O  0.41286569  0.89480906  0.44263287    -0.70900
O717        O  0.44688986  0.92904968  0.05264602    -0.70900
O718        O  0.51254133  0.91745167  0.43578573    -0.71100
V719        V  0.48453753  0.82646751  0.49123656     1.35200
V720        V  0.49243067  0.90947516  0.99239059     1.35200
C721        C  0.54020145  0.88380301  0.41442943     0.78400
C722        C  0.42058987  0.89628503  0.07858629     0.78400
C723        C  0.40725419  0.85407570  0.41761929     0.78300
C724        C  0.54996190  0.85713457  0.07020722     0.78300
C725        C  0.08683255  0.97974707  0.36924288    -0.15500
C726        C  0.12410633  0.01231367  0.35586967    -0.30700
H727        H  0.07401967  0.69416480  0.34985338     0.13500
H728        H  0.13566792  0.03982371  0.38654944     0.14100
C729        C  0.07337923  0.97622837  0.13395772    -0.15500
C730        C  0.10404511  0.01500030  0.14156343    -0.30700
H731        H  0.07593937  0.94441639  0.16306793     0.13500
H732        H  0.09751737  0.78874631  0.12042976     0.14100
C733        C  0.33344835  0.88112011  0.35742638    -0.15500
C734        C  0.37157014  0.84897191  0.36930083    -0.30700
H735        H  0.32201685  0.90879710  0.38849568     0.13500
H736        H  0.37994551  0.81958876  0.33911671     0.14100
C737        C  0.34863691  0.87694061  0.14191246    -0.15500
C738        C  0.38564141  0.90873123  0.12636002    -0.30700
H739        H  0.34335509  0.84392388  0.11657319     0.13500
H740        H  0.39045463  0.94309616  0.14920160     0.14100
C741        C  0.83987018  0.99741267  0.37715479    -0.15500
C742        C  0.87926479  0.02782557  0.38602028    -0.30700
H743        H  0.83262857  0.96688566  0.40727863     0.13500
H744        H  0.88594511  0.05940918  0.35732178     0.14100
C745        C  0.85387451  0.96988844  0.16782918    -0.15500
C746        C  0.86084928  0.99760847  0.12010459    -0.30700
H747        H  0.87655427  0.93656673  0.17373335     0.13500
H748        H  0.87742568  0.67443793  0.16448095     0.14100
C749        C  0.61277812  0.86423262  0.34957429    -0.15500
C750        C  0.57455225  0.89466153  0.36498163    -0.30700
H751        H  0.62374999  0.83353003  0.37750414     0.13500
H752        H  0.56640769  0.92713434  0.33843957     0.14100
C753        C  0.58662454  0.84874626  0.11665680    -0.15500
C754        C  0.61724288  0.88486609  0.13441032    -0.30700
H755        H  0.58573672  0.81347998  0.13979523     0.13500
H756        H  0.61852256  0.91990931  0.11078689     0.14100
C757        C  0.64469546  0.84856301  0.68735699     0.87400
C758        C  0.68157783  0.89263433  0.68991369    -0.52800
C759        C  0.71010659  0.89361336  0.73937101     0.10300
C760        C  0.69729950  0.85093111  0.78153033     0.21300
C761        C  0.67875631  0.80326271  0.69657427    -0.53600
C762        C  0.70759038  0.80468194  0.74528829     0.10400
C763        C  0.61200228  0.85139487  0.74225459    -0.53100
C764        C  0.63930908  0.85294261  0.79151677     0.11000
H765        H  0.68466653  0.91929123  0.65472442     0.15500
H766        H  0.71756643  0.85180300  0.82263397     0.01300
H767        H  0.68012513  0.77382583  0.66560550     0.15800
H768        H  0.57068459  0.85353203  0.74202588     0.15600
C769        C  0.81233468  0.97918145  0.80432341     0.87400
C770        C  0.77658825  0.76779435  0.80744128    -0.52800
C771        C  0.74847401  0.76803937  0.75809465     0.10300
C772        C  0.76363619  0.97301425  0.70791916     0.21300
C773        C  0.77781610  0.93328065  0.80099203    -0.53600
C774        C  0.75127289  0.93038000  0.75025077     0.10400
C775        C  0.84710157  0.97731094  0.75112845    -0.53100
C776        C  0.82186080  0.97414155  0.70073489     0.11000
H777        H  0.77250550  0.79475106  0.84119927     0.15500
H778        H  0.74526040  0.97064344  0.66578924     0.01300
H779        H  0.77385913  0.90747746  0.83695532     0.15800
H780        H  0.88840042  0.97846241  0.75311976     0.15600
C781        C  0.31984411  0.85987773  0.70558102     0.87400
C782        C  0.28911077  0.81166017  0.71082221    -0.52800
C783        C  0.25569040  0.80973620  0.75704671     0.10300
C784        C  0.25725369  0.85667003  0.79462745     0.21300
C785        C  0.27973507  0.90077086  0.70527830    -0.53600
C786        C  0.24710975  0.89980698  0.75160641     0.10400
C787        C  0.34612604  0.86448842  0.76296831    -0.53100
C788        C  0.31402147  0.86293758  0.80989125     0.11000
H789        H  0.28876324  0.78400905  0.67745451     0.15500
H790        H  0.23066685  0.85549161  0.83245834     0.01300
H791        H  0.27699392  0.92824140  0.67068563     0.15800
H792        H  0.38719684  0.86796360  0.76624545     0.15600
C793        C  0.13531960  0.98319171  0.71104960     0.87400
C794        C  0.17845830  0.78213984  0.70899075    -0.52800
C795        C  0.21061831  0.77660747  0.75410607     0.10300
C796        C  0.19835135  0.97775221  0.79706383     0.21300
C797        C  0.17110053  0.93826382  0.70883943    -0.53600
C798        C  0.20391128  0.93502011  0.75386074     0.10400
C799        C  0.10878842  0.97946570  0.76985463    -0.53100
C800        C  0.14122254  0.97620569  0.81511015     0.11000
H801        H  0.18145375  0.81306288  0.67855992     0.15500
H802        H  0.22522848  0.97546056  0.83347125     0.01300
H803        H  0.17317256  0.91264602  0.67339501     0.15800
H804        H  0.06760215  0.97997168  0.77541153     0.15600
O805        O  0.03399642  0.76874670  0.56504834    -0.70900
O806        O  0.93010354  0.73474671  0.94254961    -0.71100
O807        O  0.93554609  0.79290880  0.56317644    -0.70900
O808        O  0.03296845  0.73784693  0.94449740    -0.70900
O809        O  0.02379769  0.91398115  0.96163024    -0.70900
O810        O  0.92901086  0.95902613  0.55927200    -0.70900
O811        O  0.92228670  0.92025673  0.95598320    -0.70900
O812        O  0.02835424  0.93609215  0.55024543    -0.71100
V813        V  0.98655438  0.78164637  0.50579293     1.35200
V814        V  0.97702528  0.95492661  0.49733069     1.35200
C815        C  0.05213342  0.96949094  0.57592535     0.78400
C816        C  0.90966404  0.95687392  0.92509508     0.78400
C817        C  0.92104078  0.00035845  0.58242883     0.78300
C818        C  0.04621780  0.94923374  0.93507735     0.78300
O819        O  0.51231526  0.81700468  0.93871543    -0.70900
O820        O  0.43434435  0.80921571  0.54806447    -0.71100
O821        O  0.41504826  0.84659048  0.94910696    -0.70900
O822        O  0.53411575  0.83234718  0.54998508    -0.70900
O823        O  0.51771033  0.91102848  0.55220143    -0.70900
O824        O  0.44127498  0.92224128  0.93700911    -0.70900
O825        O  0.41878964  0.88755139  0.55802663    -0.70900
O826        O  0.53926145  0.89283068  0.93223501    -0.71100
V827        V  0.46917684  0.83594187  0.00110563     1.35200
V828        V  0.46594438  0.90124120  0.49706480     1.35200
C829        C  0.54072034  0.84893653  0.91435147     0.78400
C830        C  0.41018856  0.84320439  0.57334362     0.78400
C831        C  0.41034888  0.88841473  0.92472317     0.78300
C832        C  0.54289556  0.87441461  0.57084855     0.78300
C833        C  0.08549080  0.93994228  0.89024535    -0.15500
C834        C  0.12062169  0.97415539  0.87489658    -0.30700
H835        H  0.07961629  0.66278518  0.84889951     0.13500
H836        H  0.12702334  0.00580252  0.90202433     0.14100
C837        C  0.08772929  0.95693164  0.62218858    -0.15500
C838        C  0.09844011  0.99043280  0.66240135    -0.30700
H839        H  0.10270583  0.91963165  0.62439471     0.13500
H840        H  0.10936853  0.78365726  0.62826086     0.14100
C841        C  0.33482638  0.86502012  0.86870353    -0.15500
C842        C  0.37278960  0.89681078  0.87927684    -0.30700
H843        H  0.32437887  0.83617446  0.89979861     0.13500
H844        H  0.38060731  0.92694236  0.84878670     0.14100
C845        C  0.35677035  0.86685221  0.65556443    -0.15500
C846        C  0.37321363  0.83134360  0.62003274    -0.30700
H847        H  0.37241694  0.90385803  0.65019525     0.13500
H848        H  0.36152853  0.79323455  0.62634108     0.14100
C849        C  0.84220678  0.98462917  0.85910619    -0.15500
C850        C  0.87467888  0.94954813  0.87701632    -0.30700
H851        H  0.83944176  0.01901150  0.88258522     0.13500
H852        H  0.87577839  0.91419589  0.85545568     0.14100
C853        C  0.84910188  0.97260295  0.64457277    -0.15500
C854        C  0.88638467  0.00511419  0.63235599    -0.30700
H855        H  0.83928127  0.94425495  0.61409702     0.13500
H856        H  0.88070284  0.79522628  0.65962357     0.14100
C857        C  0.61471753  0.86024156  0.84859399    -0.15500
C858        C  0.57223750  0.83555540  0.86396155    -0.30700
H859        H  0.63064307  0.88741917  0.87709343     0.13500
H860        H  0.55897815  0.80569628  0.83730736     0.14100
C861        C  0.58000431  0.88103752  0.61754857    -0.15500
C862        C  0.61304304  0.84542172  0.63329053    -0.30700
H863        H  0.57862865  0.91528586  0.64137987     0.13500
H864        H  0.61504911  0.81173771  0.60842584     0.14100
loop_ 
_geom_bond_atom_site_label_1 
_geom_bond_atom_site_label_2 
_geom_bond_distance 
_geom_bond_site_symmetry_2 
_ccdc_geom_bond_type 
C1            C2   1.537       .  S
C1            C7   1.527       .  S
C1            C5   1.538       .  S
C1          C106   1.512       .  S
C2            H9   1.082       .  S
C2            C3   1.370       .  D
C3            C4   1.538       .  S
C3           C18   1.489       .  S
C4            C8   1.541       .  S
C4            C6   1.545       .  S
C4           H10   1.099       .  S
C5           H11   1.082       .  S
C5            C6   1.378       .  D
C6           C15   1.502       .  S
C7           H12   1.087       .  S
C7            C8   1.357       .  D
C8          C101   1.489       .  S
C13          C19   1.527       .  S
C13          C17   1.529       .  S
C13          C93   1.508       .  S
C13         C230   1.538       .  S
C14         C661   1.536   1_545  S
C14          H21   1.082       .  S
C14          C15   1.377       .  D
C15         C664   1.543   1_545  S
C16          C20   1.536       .  S
C16          C18   1.538       .  S
C16         C231   1.542       .  S
C16          H22   1.099       .  S
C17          H23   1.081       .  S
C17          C18   1.367       .  D
C19          H24   1.087       .  S
C19          C20   1.354       .  D
C20          C97   1.473       .  S
C25          C26   1.532       .  S
C25          C31   1.525       .  S
C25          C29   1.533       .  S
C25          C89   1.517       .  S
C26          H33   1.087       .  S
C26          C27   1.367       .  D
C27          C28   1.549       .  S
C27          C39   1.485       .  S
C28          C32   1.546       .  S
C28          C30   1.550       .  S
C28          H34   1.111       .  S
C29          H35   1.086       .  S
C29          C30   1.369       .  D
C30          C42   1.491       .  S
C31          H36   1.087       .  S
C31          C32   1.365       .  D
C32          C85   1.476       .  S
C37          C43   1.521       .  S
C37          C41   1.532       .  S
C37          C82   1.514       .  S
C37         C254   1.535       .  S
C38         C685   1.526       .  S
C38          H45   1.087       .  S
C38          C39   1.365       .  D
C39         C688   1.554       .  S
C40          C44   1.552       .  S
C40          C42   1.552       .  S
C40         C255   1.550       .  S
C40          H46   1.111       .  S
C41          H47   1.087       .  S
C41          C42   1.365       .  D
C43          H48   1.087       .  S
C43          C44   1.367       .  D
C44          C78   1.485       .  S
O49          V57   1.910   1_454  S
O49         C707   1.268   1_545  A
O50         V165   1.904       .  S
O50         C708   1.264       .  A
O51          V57   1.893   1_554  S
O51         C709   1.260   1_545  A
O52         V165   1.904   1_455  S
O52         C710   1.264   1_545  A
O53         V166   1.897   1_455  S
O53          C62   1.263       .  A
O54          V58   1.901   1_554  S
O54          C61   1.263       .  A
O55         V166   1.895       .  S
O55          C60   1.265       .  A
O56          V58   1.904   1_454  S
O56          C59   1.265       .  A
V57         O158   1.913   1_545  S
V57         O160   1.894   1_645  S
V57         V706   2.088   1_546  T
V58         O161   1.915   1_655  S
V58         O163   1.910       .  S
V58         V273   2.088   1_556  T
C59         O265   1.264       .  A
C59          C81   1.476       .  S
C60         O266   1.263       .  A
C60          C94   1.474       .  S
C61         O267   1.266       .  A
C61          C98   1.476       .  S
C62         O268   1.267       .  A
C62          C77   1.474       .  S
O63          V71   1.900       .  S
O63          C73   1.263       .  A
O64         V179   1.902   1_554  S
O64          C74   1.264       .  A
O65          V71   1.901       .  S
O65          C75   1.264       .  A
O66         V179   1.905   1_554  S
O66          C76   1.264       .  A
O67          V72   1.898   1_554  S
O67          C76   1.265       .  A
O68         V180   1.903       .  S
O68          C75   1.265       .  A
O69          V72   1.907   1_554  S
O69          C74   1.266       .  A
O70         V180   1.914       .  S
O70          C73   1.267       .  A
V71         O172   1.904       .  S
V71         O174   1.904       .  S
V71         V180   2.088       .  T
V72         O176   1.903       .  S
V72         O178   1.899       .  S
V72         V179   2.086       .  T
C73         C102   1.477       .  S
C74          C90   1.477       .  S
C75          C86   1.474       .  S
C76         C105   1.476       .  S
C77         H295   1.087       .  S
C77          C78   1.345       .  D
C78          H80   1.086       .  S
H79         C725   1.088       .  S
C81          H83   1.087       .  S
C81          C82   1.346       .  D
C82         H300   1.087       .  S
H84         C730   1.087       .  S
C85          H87   1.086       .  S
C85          C86   1.343       .  D
C86          H88   1.087       .  S
C89          H91   1.087       .  S
C89          C90   1.345       .  D
C90          H92   1.087       .  S
C93          H95   1.087       .  S
C93          C94   1.341       .  D
C94          H96   1.086       .  S
C97          H99   1.086       .  S
C97          C98   1.340       .  D
C98         H316   1.087       .  S
H100        C746   1.087   1_545  S
C101        H103   1.086       .  S
C101        C102   1.345       .  D
C102        H104   1.087       .  S
C105        H107   1.087       .  S
C105        C106   1.344       .  D
C106        H108   1.087       .  S
C109        C110   1.539       .  S
C109        C115   1.524       .  S
C109        C113   1.530       .  S
C109        C214   1.508       .  S
C110        H117   1.081       .  S
C110        C111   1.377       .  D
C111        C112   1.538       .  S
C111        C126   1.499       .  S
C112        C116   1.542       .  S
C112        C114   1.542       .  S
C112        H118   1.101       .  S
C113        H119   1.082       .  S
C113        C114   1.372       .  D
C114        C123   1.484       .  S
C115        H120   1.087       .  S
C115        C116   1.351       .  D
C116        C209   1.479       .  S
C121        C338   1.538       .  S
C121        C127   1.526       .  S
C121        C125   1.541       .  S
C121        C201   1.517       .  S
C122        C769   1.529   1_545  S
C122        H129   1.081       .  S
C122        C123   1.370       .  D
C123        C772   1.538   1_545  S
C124        C339   1.539       .  S
C124        C128   1.532       .  S
C124        C126   1.536       .  S
C124        H130   1.098       .  S
C125        H131   1.082       .  S
C125        C126   1.377       .  D
C127        H132   1.087       .  S
C127        C128   1.354       .  D
C128        C205   1.477       .  S
C133        C134   1.532       .  S
C133        C139   1.523       .  S
C133        C137   1.532       .  S
C133        C197   1.517       .  S
C134        H141   1.087       .  S
C134        C135   1.367       .  D
C135        C136   1.552       .  S
C135        C147   1.492       .  S
C136        C140   1.555       .  S
C136        C138   1.554       .  S
C136        H142   1.111       .  S
C137        H143   1.086       .  S
C137        C138   1.369       .  D
C138        C150   1.497       .  S
C139        H144   1.087       .  S
C139        C140   1.367       .  D
C140        C193   1.487       .  S
C145        C362   1.526       .  S
C145        C151   1.520       .  S
C145        C149   1.531       .  S
C145        C190   1.506       .  S
C146        C793   1.529   1_545  S
C146        H153   1.088       .  S
C146        C147   1.364       .  D
C147        C796   1.553   1_545  S
C148        C363   1.558       .  S
C148        C152   1.559       .  S
C148        C150   1.554       .  S
C148        H154   1.110       .  S
C149        H155   1.087       .  S
C149        C150   1.368       .  D
C151        H156   1.087       .  S
C151        C152   1.365       .  D
C152        C186   1.489       .  S
O157        V165   1.891   1_455  S
O157        C815   1.264   1_545  A
O158        C816   1.269       .  A
O159        V165   1.896       .  S
O159        C817   1.263       .  A
O160        C818   1.262       .  A
O161        C170   1.267       .  A
O162        V166   1.892       .  S
O162        C169   1.262       .  A
O163        C168   1.267       .  A
O164        V166   1.904   1_455  S
O164        C167   1.264       .  A
V165        V814   2.088   1_545  T
V166        V381   2.088       .  T
C167        O373   1.263       .  A
C167        C189   1.472       .  S
C168        O374   1.263       .  A
C168        C202   1.476       .  S
C169        O375   1.266       .  A
C169        C206   1.472       .  S
C170        O376   1.264       .  A
C170        C185   1.479       .  S
O171        V179   1.911       .  S
O171        C181   1.268       .  A
O172        C182   1.266       .  A
O173        V179   1.911       .  S
O173        C183   1.266       .  A
O174        C184   1.266       .  A
O175        V180   1.893       .  S
O175        C184   1.261       .  A
O176        C183   1.264       .  A
O177        V180   1.906       .  S
O177        C182   1.265       .  A
O178        C181   1.263       .  A
C181        C210   1.480       .  S
C182        C198   1.480       .  S
C183        C194   1.478       .  S
C184        C213   1.468       .  S
C185        H403   1.088       .  S
C185        C186   1.350       .  D
C186        H188   1.085       .  S
H187        C833   1.087       .  S
C189        H191   1.086       .  S
C189        C190   1.343       .  D
C190        H408   1.087       .  S
H192        C838   1.088   1_545  S
C193        H195   1.086       .  S
C193        C194   1.347       .  D
C194        H196   1.087       .  S
C197        H199   1.087       .  S
C197        C198   1.346       .  D
C198        H200   1.086       .  S
C201        H203   1.087       .  S
C201        C202   1.347       .  D
C202        H204   1.087       .  S
C205        H207   1.086       .  S
C205        C206   1.345       .  D
C206        H424   1.087       .  S
H208        C854   1.087       .  S
C209        H211   1.087       .  S
C209        C210   1.339       .  D
C210        H212   1.087       .  S
C213        H215   1.087       .  S
C213        C214   1.341       .  D
C214        H216   1.087       .  S
C217        C218   1.535       .  S
C217        C223   1.526       .  S
C217        C221   1.530       .  S
C217        C322   1.508       .  S
C218        H225   1.082       .  S
C218        C219   1.372       .  D
C219        C220   1.538       .  S
C219        C234   1.489       .  S
C220        C224   1.538       .  S
C220        C222   1.541       .  S
C220        H226   1.101       .  S
C221        H227   1.081       .  S
C221        C222   1.375       .  D
C222        C231   1.492       .  S
C223        H228   1.087       .  S
C223        C224   1.359       .  D
C224        C317   1.479       .  S
C229        C446   1.541       .  S
C229        C235   1.526       .  S
C229        C233   1.534       .  S
C229        C309   1.507       .  S
C230        H237   1.083       .  S
C230        C231   1.378       .  D
C232        C447   1.538       .  S
C232        C236   1.531       .  S
C232        C234   1.535       .  S
C232        H238   1.098       .  S
C233        H239   1.082       .  S
C233        C234   1.370       .  D
C235        H240   1.087       .  S
C235        C236   1.353       .  D
C236        C313   1.470       .  S
C241        C242   1.524       .  S
C241        C247   1.523       .  S
C241        C245   1.534       .  S
C241        C305   1.508       .  S
C242        H249   1.086       .  S
C242        C243   1.361       .  D
C243        C244   1.555       .  S
C243        C255   1.487       .  S
C244        C248   1.550       .  S
C244        C246   1.548       .  S
C244        H250   1.111       .  S
C245        H251   1.086       .  S
C245        C246   1.370       .  D
C246        C258   1.489       .  S
C247        H252   1.087       .  S
C247        C248   1.367       .  D
C248        C301   1.480       .  S
C253        C470   1.529       .  S
C253        C259   1.523       .  S
C253        C257   1.528       .  S
C253        C298   1.505       .  S
C254        H261   1.087       .  S
C254        C255   1.370       .  D
C256        C471   1.559       .  S
C256        C260   1.556       .  S
C256        C258   1.556       .  S
C256        H262   1.111       .  S
C257        H263   1.087       .  S
C257        C258   1.363       .  D
C259        H264   1.087       .  S
C259        C260   1.365       .  D
C260        C294   1.490       .  S
O265        V273   1.900   1_455  S
O266        V381   1.902       .  S
O267        V273   1.902       .  S
O268        V381   1.910   1_455  S
O269        V382   1.909   1_455  S
O269        C278   1.267       .  A
O270        V274   1.895       .  S
O270        C277   1.262       .  A
O271        V382   1.889       .  S
O271        C276   1.264       .  A
O272        V274   1.899   1_455  S
O272        C275   1.263       .  A
V273        O374   1.899   1_554  S
V273        O376   1.901   1_654  S
V274        O377   1.903   1_654  S
V274        O379   1.907   1_554  S
V274        V489   2.089       .  T
C275        O481   1.263       .  A
C275        C297   1.467       .  S
C276        O482   1.264       .  A
C276        C310   1.474       .  S
C277        O483   1.266       .  A
C277        C314   1.471       .  S
C278        O484   1.265       .  A
C278        C293   1.481       .  S
O279        V287   1.893       .  S
O279        C289   1.261       .  A
O280        V395   1.893   1_554  S
O280        C290   1.264       .  A
O281        V287   1.896       .  S
O281        C291   1.263       .  A
O282        V395   1.905   1_554  S
O282        C292   1.265       .  A
O283        V288   1.892   1_554  S
O283        C292   1.263       .  A
O284        V396   1.911       .  S
O284        C291   1.267       .  A
O285        V288   1.903   1_554  S
O285        C290   1.264       .  A
O286        V396   1.909       .  S
O286        C289   1.266       .  A
V287        O388   1.894       .  S
V287        O390   1.899       .  S
V287        V396   2.089       .  T
V288        O392   1.899       .  S
V288        O394   1.899       .  S
V288        V395   2.088       .  T
C289        C318   1.469       .  S
C290        C306   1.474       .  S
C291        C302   1.474       .  S
C292        C321   1.473       .  S
C293        H511   1.087       .  S
C293        C294   1.352       .  D
C294        H296   1.086       .  S
C297        H299   1.087       .  S
C297        C298   1.343       .  D
C298        H516   1.087       .  S
C301        H303   1.086       .  S
C301        C302   1.344       .  D
C302        H304   1.088       .  S
C305        H307   1.087       .  S
C305        C306   1.342       .  D
C306        H308   1.086       .  S
C309        H311   1.087       .  S
C309        C310   1.344       .  D
C310        H312   1.087       .  S
C313        H315   1.086       .  S
C313        C314   1.338       .  D
C314        H532   1.088       .  S
C317        H319   1.086       .  S
C317        C318   1.340       .  D
C318        H320   1.087       .  S
C321        H323   1.087       .  S
C321        C322   1.344       .  D
C322        H324   1.087       .  S
C325        C326   1.539       .  S
C325        C331   1.528       .  S
C325        C329   1.528       .  S
C325        C430   1.512       .  S
C326        H333   1.083       .  S
C326        C327   1.377       .  D
C327        C328   1.537       .  S
C327        C342   1.492       .  S
C328        C332   1.536       .  S
C328        C330   1.537       .  S
C328        H334   1.101       .  S
C329        H335   1.081       .  S
C329        C330   1.371       .  D
C330        C339   1.488       .  S
C331        H336   1.087       .  S
C331        C332   1.360       .  D
C332        C425   1.477       .  S
C337        C554   1.539       .  S
C337        C343   1.528       .  S
C337        C341   1.536       .  S
C337        C417   1.511       .  S
C338        H345   1.083       .  S
C338        C339   1.375       .  D
C340        C555   1.545       .  S
C340        C344   1.534       .  S
C340        C342   1.532       .  S
C340        H346   1.099       .  S
C341        H347   1.082       .  S
C341        C342   1.373       .  D
C343        H348   1.087       .  S
C343        C344   1.358       .  D
C344        C421   1.480       .  S
C349        C350   1.531       .  S
C349        C355   1.520       .  S
C349        C353   1.531       .  S
C349        C413   1.508       .  S
C350        H357   1.087       .  S
C350        C351   1.368       .  D
C351        C352   1.554       .  S
C351        C363   1.489       .  S
C352        C356   1.551       .  S
C352        C354   1.551       .  S
C352        H358   1.111       .  S
C353        H359   1.087       .  S
C353        C354   1.365       .  D
C354        C366   1.490       .  S
C355        H360   1.087       .  S
C355        C356   1.367       .  D
C356        C409   1.481       .  S
C361        C578   1.522       .  S
C361        C367   1.522       .  S
C361        C365   1.532       .  S
C361        C406   1.500       .  S
C362        H369   1.088       .  S
C362        C363   1.364       .  D
C364        C579   1.554       .  S
C364        C368   1.550       .  S
C364        C366   1.550       .  S
C364        H370   1.111       .  S
C365        H371   1.087       .  S
C365        C366   1.367       .  D
C367        H372   1.087       .  S
C367        C368   1.367       .  D
C368        C402   1.477       .  S
O373        V381   1.889   1_455  S
O375        V381   1.908       .  S
O377        C386   1.265       .  A
O378        V382   1.902       .  S
O378        C385   1.265       .  A
O379        C384   1.267       .  A
O380        V382   1.897   1_455  S
O380        C383   1.261       .  A
V382        V597   2.088       .  T
C383        O589   1.264       .  A
C383        C405   1.468       .  S
C384        O590   1.261       .  A
C384        C418   1.472       .  S
C385        O591   1.264       .  A
C385        C422   1.474       .  S
C386        O592   1.264       .  A
C386        C401   1.472       .  S
O387        V395   1.903       .  S
O387        C397   1.264       .  A
O388        C398   1.264       .  A
O389        V395   1.903       .  S
O389        C399   1.265       .  A
O390        C400   1.266       .  A
O391        V396   1.903       .  S
O391        C400   1.263       .  A
O392        C399   1.264       .  A
O393        V396   1.901       .  S
O393        C398   1.264       .  A
O394        C397   1.264       .  A
C397        C426   1.472       .  S
C398        C414   1.471       .  S
C399        C410   1.472       .  S
C400        C429   1.476       .  S
C401        H619   1.088       .  S
C401        C402   1.345       .  D
C402        H404   1.086       .  S
C405        H407   1.086       .  S
C405        C406   1.338       .  D
C406        H624   1.087       .  S
C409        H411   1.086       .  S
C409        C410   1.345       .  D
C410        H412   1.087       .  S
C413        H415   1.087       .  S
C413        C414   1.344       .  D
C414        H416   1.087       .  S
C417        H419   1.087       .  S
C417        C418   1.342       .  D
C418        H420   1.087       .  S
C421        H423   1.086       .  S
C421        C422   1.342       .  D
C422        H640   1.087       .  S
C425        H427   1.086       .  S
C425        C426   1.342       .  D
C426        H428   1.087       .  S
C429        H431   1.087       .  S
C429        C430   1.343       .  D
C430        H432   1.087       .  S
C433        C434   1.542       .  S
C433        C439   1.525       .  S
C433        C437   1.524       .  S
C433        C538   1.507       .  S
C434        H441   1.083       .  S
C434        C435   1.374       .  D
C435        C436   1.538       .  S
C435        C450   1.492       .  S
C436        C440   1.537       .  S
C436        C438   1.539       .  S
C436        H442   1.100       .  S
C437        H443   1.080       .  S
C437        C438   1.372       .  D
C438        C447   1.490       .  S
C439        H444   1.087       .  S
C439        C440   1.358       .  D
C440        C533   1.475       .  S
C445        C662   1.535       .  S
C445        C451   1.524       .  S
C445        C449   1.531       .  S
C445        C525   1.514       .  S
C446        H453   1.083       .  S
C446        C447   1.377       .  D
C448        C663   1.541       .  S
C448        C452   1.540       .  S
C448        C450   1.540       .  S
C448        H454   1.101       .  S
C449        H455   1.081       .  S
C449        C450   1.371       .  D
C451        H456   1.087       .  S
C451        C452   1.361       .  D
C452        C529   1.480       .  S
C457        C458   1.537       .  S
C457        C463   1.522       .  S
C457        C461   1.521       .  S
C457        C521   1.506       .  S
C458        H465   1.087       .  S
C458        C459   1.367       .  D
C459        C460   1.551       .  S
C459        C471   1.493       .  S
C460        C464   1.552       .  S
C460        C462   1.553       .  S
C460        H466   1.111       .  S
C461        H467   1.087       .  S
C461        C462   1.361       .  D
C462        C474   1.478       .  S
C463        H468   1.087       .  S
C463        C464   1.366       .  D
C464        C517   1.479       .  S
C469        C686   1.535       .  S
C469        C475   1.522       .  S
C469        C473   1.529       .  S
C469        C514   1.515       .  S
C470        H477   1.087       .  S
C470        C471   1.366       .  D
C472        C687   1.547       .  S
C472        C476   1.542       .  S
C472        C474   1.543       .  S
C472        H478   1.111       .  S
C473        H479   1.087       .  S
C473        C474   1.365       .  D
C475        H480   1.087       .  S
C475        C476   1.367       .  D
C476        C510   1.472       .  S
O481        V489   1.892   1_455  S
O482        V597   1.906       .  S
O483        V489   1.902       .  S
O484        V597   1.908   1_455  S
O485        V598   1.897   1_455  S
O485        C494   1.263       .  A
O486        V490   1.895       .  S
O486        C493   1.262       .  A
O487        V598   1.898       .  S
O487        C492   1.265       .  A
O488        V490   1.904   1_455  S
O488        C491   1.265       .  A
V489        O590   1.893   1_554  S
V489        O592   1.899   1_654  S
V490        O593   1.898   1_654  S
V490        O595   1.906   1_554  S
V490        V705   2.088       .  T
C491        O697   1.264       .  A
C491        C513   1.476       .  S
C492        O698   1.265       .  A
C492        C526   1.480       .  S
C493        O699   1.266       .  A
C493        C530   1.472       .  S
C494        O700   1.263       .  A
C494        C509   1.465       .  S
O495        V503   1.891       .  S
O495        C505   1.260       .  A
O496        V611   1.876   1_554  S
O496        C506   1.256       .  A
O497        V503   1.900       .  S
O497        C507   1.263       .  A
O498        V611   1.917   1_554  S
O498        C508   1.269       .  A
O499        V504   1.874   1_554  S
O499        C508   1.258       .  A
O500        V612   1.906       .  S
O500        C507   1.266       .  A
O501        V504   1.913   1_554  S
O501        C506   1.270       .  A
O502        V612   1.909       .  S
O502        C505   1.267       .  A
V503        O604   1.890       .  S
V503        O606   1.899       .  S
V503        V612   2.089       .  T
V504        O608   1.882       .  S
V504        O610   1.915       .  S
V504        V611   2.088       .  T
C505        C534   1.471       .  S
C506        C522   1.464       .  S
C507        C518   1.474       .  S
C508        C537   1.472       .  S
C509        H727   1.087       .  S
C509        C510   1.342       .  D
C510        H512   1.086       .  S
C513        H515   1.087       .  S
C513        C514   1.347       .  D
C514        H732   1.087       .  S
C517        H519   1.086       .  S
C517        C518   1.344       .  D
C518        H520   1.087       .  S
C521        H523   1.087       .  S
C521        C522   1.333       .  D
C522        H524   1.087       .  S
C525        H527   1.087       .  S
C525        C526   1.345       .  D
C526        H528   1.086       .  S
C529        H531   1.086       .  S
C529        C530   1.343       .  D
C530        H748   1.088       .  S
C533        H535   1.086       .  S
C533        C534   1.338       .  D
C534        H536   1.088       .  S
C537        H539   1.086       .  S
C537        C538   1.350       .  D
C538        H540   1.087       .  S
C541        C542   1.536       .  S
C541        C547   1.522       .  S
C541        C545   1.524       .  S
C541        C646   1.510       .  S
C542        H549   1.081       .  S
C542        C543   1.379       .  D
C543        C544   1.537       .  S
C543        C558   1.492       .  S
C544        C548   1.542       .  S
C544        C546   1.544       .  S
C544        H550   1.102       .  S
C545        H551   1.081       .  S
C545        C546   1.368       .  D
C546        C555   1.491       .  S
C547        H552   1.087       .  S
C547        C548   1.362       .  D
C548        C641   1.483       .  S
C553        C770   1.536       .  S
C553        C559   1.528       .  S
C553        C557   1.540       .  S
C553        C633   1.515       .  S
C554        H561   1.083       .  S
C554        C555   1.372       .  D
C556        C771   1.538       .  S
C556        C560   1.527       .  S
C556        C558   1.532       .  S
C556        H562   1.098       .  S
C557        H563   1.082       .  S
C557        C558   1.377       .  D
C559        H564   1.087       .  S
C559        C560   1.358       .  D
C560        C637   1.469       .  S
C565        C566   1.529       .  S
C565        C571   1.522       .  S
C565        C569   1.529       .  S
C565        C629   1.505       .  S
C566        H573   1.088       .  S
C566        C567   1.366       .  D
C567        C568   1.549       .  S
C567        C579   1.478       .  S
C568        C572   1.546       .  S
C568        C570   1.556       .  S
C568        H574   1.111       .  S
C569        H575   1.087       .  S
C569        C570   1.363       .  D
C570        C582   1.491       .  S
C571        H576   1.087       .  S
C571        C572   1.368       .  D
C572        C625   1.478       .  S
C577        C794   1.528       .  S
C577        C583   1.525       .  S
C577        C581   1.533       .  S
C577        C622   1.511       .  S
C578        H585   1.088       .  S
C578        C579   1.359       .  D
C580        C795   1.553       .  S
C580        C584   1.550       .  S
C580        C582   1.552       .  S
C580        H586   1.111       .  S
C581        H587   1.086       .  S
C581        C582   1.370       .  D
C583        H588   1.087       .  S
C583        C584   1.367       .  D
C584        C618   1.481       .  S
O589        V597   1.888   1_455  S
O591        V597   1.902       .  S
O593        C602   1.262       .  A
O594        V598   1.892       .  S
O594        C601   1.264       .  A
O595        C600   1.265       .  A
O596        V598   1.902   1_455  S
O596        C599   1.263       .  A
V598        V813   2.089       .  T
C599        O805   1.266       .  A
C599        C621   1.476       .  S
C600        O806   1.265       .  A
C600        C634   1.477       .  S
C601        O807   1.263       .  A
C601        C638   1.467       .  S
C602        O808   1.267       .  A
C602        C617   1.474       .  S
O603        V611   1.884       .  S
O603        C613   1.259       .  A
O604        C614   1.263       .  A
O605        V611   1.919       .  S
O605        C615   1.270       .  A
O606        C616   1.266       .  A
O607        V612   1.899       .  S
O607        C616   1.262       .  A
O608        C615   1.258       .  A
O609        V612   1.901       .  S
O609        C614   1.263       .  A
O610        C613   1.268       .  A
C613        C642   1.467       .  S
C614        C630   1.469       .  S
C615        C626   1.469       .  S
C616        C645   1.473       .  S
C617        H835   1.087       .  S
C617        C618   1.344       .  D
C618        H620   1.086       .  S
C621        H623   1.086       .  S
C621        C622   1.342       .  D
C622        H840   1.087       .  S
C625        H627   1.086       .  S
C625        C626   1.338       .  D
C626        H628   1.088       .  S
C629        H631   1.087       .  S
C629        C630   1.342       .  D
C630        H632   1.087       .  S
C633        H635   1.087       .  S
C633        C634   1.345       .  D
C634        H636   1.087       .  S
C637        H639   1.086       .  S
C637        C638   1.338       .  D
C638        H856   1.087       .  S
C641        H643   1.086       .  S
C641        C642   1.341       .  D
C642        H644   1.087       .  S
C645        H647   1.087       .  S
C645        C646   1.340       .  D
C646        H648   1.087       .  S
C649        C650   1.527       .  S
C649        C655   1.526       .  S
C649        C653   1.536       .  S
C649        C754   1.507       .  S
C650        H657   1.082       .  S
C650        C651   1.369       .  D
C651        C652   1.538       .  S
C651        C666   1.481       .  S
C652        C656   1.537       .  S
C652        C654   1.540       .  S
C652        H658   1.101       .  S
C653        H659   1.082       .  S
C653        C654   1.374       .  D
C654        C663   1.495       .  S
C655        H660   1.087       .  S
C655        C656   1.360       .  D
C656        C749   1.476       .  S
C661        C667   1.523       .  S
C661        C665   1.537       .  S
C661        C741   1.508       .  S
C662        H669   1.082       .  S
C662        C663   1.377       .  D
C664        C668   1.539       .  S
C664        C666   1.537       .  S
C664        H670   1.101       .  S
C665        H671   1.083       .  S
C665        C666   1.371       .  D
C667        H672   1.087       .  S
C667        C668   1.350       .  D
C668        C745   1.476       .  S
C673        C674   1.526       .  S
C673        C679   1.520       .  S
C673        C677   1.528       .  S
C673        C737   1.499       .  S
C674        H681   1.087       .  S
C674        C675   1.360       .  D
C675        C676   1.553       .  S
C675        C687   1.488       .  S
C676        C680   1.561       .  S
C676        C678   1.558       .  S
C676        H682   1.110       .  S
C677        H683   1.087       .  S
C677        C678   1.367       .  D
C678        C690   1.491       .  S
C679        H684   1.087       .  S
C679        C680   1.366       .  D
C680        C733   1.492       .  S
C685        C691   1.522       .  S
C685        C689   1.533   1_545  S
C685        C730   1.511       .  S
C686        H693   1.087       .  S
C686        C687   1.372       .  D
C688        C692   1.549       .  S
C688        C690   1.550   1_545  S
C688        H694   1.111       .  S
C689        H695   1.087       .  S
C689        C690   1.369       .  D
C691        H696   1.087       .  S
C691        C692   1.365       .  D
C692        C726   1.482       .  S
O697        V705   1.900   1_455  S
O698        V813   1.909       .  S
O699        V705   1.908       .  S
O700        V813   1.894   1_455  S
O701        V814   1.901   1_455  S
O701        C710   1.265       .  A
O702        V706   1.912       .  S
O702        C709   1.269       .  A
O703        V814   1.894       .  S
O703        C708   1.264   1_565  A
O704        V706   1.889   1_455  S
O704        C707   1.260       .  A
V705        O806   1.901   1_554  S
V705        O808   1.911   1_654  S
V706        O809   1.912   1_654  S
V706        O811   1.892   1_554  S
C707        C729   1.471       .  S
C708        C742   1.472       .  S
C709        C746   1.476       .  S
C710        C725   1.473       .  S
O711        V719   1.896       .  S
O711        C721   1.263       .  A
O712        V827   1.883       .  S
O712        C722   1.263       .  A
O713        V719   1.910       .  S
O713        C723   1.268       .  A
O714        V827   1.900       .  S
O714        C724   1.263       .  A
O715        V720   1.895   1_554  S
O715        C724   1.264       .  A
O716        V828   1.907       .  S
O716        C723   1.264       .  A
O717        V720   1.903   1_554  S
O717        C722   1.263       .  A
O718        V828   1.904       .  S
O718        C721   1.265       .  A
V719        O820   1.900       .  S
V719        O822   1.910       .  S
V719        V828   2.086       .  T
V720        O824   1.902       .  S
V720        O826   1.901       .  S
V720        V827   2.089   1_556  T
C721        C750   1.471       .  S
C722        C738   1.468       .  S
C723        C734   1.482       .  S
C724        C753   1.472       .  S
C725        C726   1.347   1_565  D
C726        H728   1.086       .  S
C729        H731   1.087       .  S
C729        C730   1.340   1_565  D
C733        H735   1.085       .  S
C733        C734   1.354       .  D
C734        H736   1.087       .  S
C737        H739   1.088       .  S
C737        C738   1.340       .  D
C738        H740   1.087       .  S
C741        H743   1.087       .  S
C741        C742   1.345   1_565  D
C742        H744   1.087       .  S
C745        H747   1.087       .  S
C745        C746   1.336       .  D
C749        H751   1.086       .  S
C749        C750   1.344       .  D
C750        H752   1.087       .  S
C753        H755   1.087       .  S
C753        C754   1.342       .  D
C754        H756   1.087       .  S
C757        C758   1.541       .  S
C757        C763   1.524       .  S
C757        C761   1.530       .  S
C757        C862   1.520       .  S
C758        H765   1.082       .  S
C758        C759   1.381       .  D
C759        C760   1.534       .  S
C759        C774   1.499       .  S
C760        C764   1.537       .  S
C760        C762   1.539       .  S
C760        H766   1.100       .  S
C761        H767   1.081       .  S
C761        C762   1.372       .  D
C762        C771   1.490       .  S
C763        H768   1.087       .  S
C763        C764   1.360       .  D
C764        C857   1.477       .  S
C769        C775   1.522       .  S
C769        C773   1.544       .  S
C769        C849   1.514       .  S
C770        H777   1.082       .  S
C770        C771   1.372       .  D
C772        C776   1.535       .  S
C772        C774   1.533       .  S
C772        H778   1.100       .  S
C773        H779   1.082       .  S
C773        C774   1.381       .  D
C775        H780   1.087       .  S
C775        C776   1.357       .  D
C776        C853   1.475       .  S
C781        C782   1.538       .  S
C781        C787   1.516       .  S
C781        C785   1.526       .  S
C781        C845   1.507       .  S
C782        H789   1.085       .  S
C782        C783   1.373       .  D
C783        C784   1.553       .  S
C783        C795   1.490       .  S
C784        C788   1.549       .  S
C784        C786   1.548       .  S
C784        H790   1.111       .  S
C785        H791   1.087       .  S
C785        C786   1.361       .  D
C786        C798   1.480       .  S
C787        H792   1.087       .  S
C787        C788   1.364       .  D
C788        C841   1.479       .  S
C793        C799   1.521       .  S
C793        C797   1.536       .  S
C793        C838   1.509       .  S
C794        H801   1.087       .  S
C794        C795   1.362       .  D
C796        C800   1.551       .  S
C796        C798   1.547       .  S
C796        H802   1.111       .  S
C797        H803   1.084       .  S
C797        C798   1.367       .  D
C799        H804   1.087       .  S
C799        C800   1.365       .  D
C800        C834   1.478       .  S
O805        V813   1.898   1_455  S
O807        V813   1.898       .  S
O809        C818   1.267       .  A
O810        V814   1.897       .  S
O810        C817   1.264   1_565  A
O811        C816   1.260       .  A
O812        V814   1.902   1_455  S
O812        C815   1.263       .  A
C815        C837   1.470       .  S
C816        C850   1.473       .  S
C817        C854   1.466       .  S
C818        C833   1.474       .  S
O819        V827   1.897   1_556  S
O819        C829   1.262       .  A
O820        C830   1.262       .  A
O821        V827   1.898   1_556  S
O821        C831   1.263       .  A
O822        C832   1.268       .  A
O823        V828   1.905       .  S
O823        C832   1.264       .  A
O824        C831   1.265       .  A
O825        V828   1.894       .  S
O825        C830   1.265       .  A
O826        C829   1.265       .  A
C829        C858   1.468       .  S
C830        C846   1.472       .  S
C831        C842   1.470       .  S
C832        C861   1.483       .  S
C833        C834   1.348       .  D
C834        H836   1.086   1_565  S
C837        H839   1.083       .  S
C837        C838   1.345       .  D
C841        H843   1.086       .  S
C841        C842   1.347       .  D
C842        H844   1.087       .  S
C845        H847   1.088       .  S
C845        C846   1.341       .  D
C846        H848   1.084       .  S
C849        H851   1.087   1_565  S
C849        C850   1.340       .  D
C850        H852   1.087       .  S
C853        H855   1.086       .  S
C853        C854   1.341   1_565  D
C857        H859   1.086       .  S
C857        C858   1.341       .  D
C858        H860   1.087       .  S
C861        H863   1.087       .  S
C861        C862   1.345       .  D
C862        H864   1.087       .  S
