geometry optimzed in LAMMPS
_audit_creation_date              2020-11-30 
_audit_creation_method            'lammps2cif' 
_symmetry_space_group_name_H-M    'P1' 
_symmetry_Int_Tables_number       1 
_symmetry_cell_setting            triclinic 
loop_ 
_symmetry_equiv_pos_as_xyz 
  x,y,z 
_cell_length_a                    36.10830161 
_cell_length_b                    35.90072761313216 
_cell_length_c                    36.19825537339593 
_cell_angle_alpha                 89.97596944322643 
_cell_angle_beta                  90.33172646954479 
_cell_angle_gamma                 89.71448189270147 
loop_ 
_atom_site_label 
_atom_site_type_symbol 
_atom_site_fract_x 
_atom_site_fract_y 
_atom_site_fract_z 
_atom_site_charge 
C1          C  0.56356342  0.26942937  0.09824599     0.03100
C2          C  0.55244547  0.27057757  0.06107528    -0.13000
C3          C  0.51479108  0.27271399  0.05115336     0.00600
C4          C  0.48819660  0.27395998  0.07939954    -0.11500
C5          C  0.49884919  0.27213120  0.11680850     0.03100
C6          C  0.53662841  0.26940276  0.12603264    -0.10900
H7          H  0.57344646  0.26900637  0.03988914     0.08700
H8          H  0.45907883  0.27636008  0.07242348     0.06300
H9          H  0.54511244  0.26866655  0.15479260     0.06100
C10         C  0.43989705  0.20074885  0.29563917     0.03100
C11         C  0.43943074  0.22846655  0.26824480    -0.13000
C12         C  0.44136108  0.21870593  0.23067858     0.00600
C13         C  0.44197397  0.18094038  0.22057587    -0.11500
C14         C  0.44138323  0.15276527  0.24754945     0.03100
C15         C  0.44123872  0.16313788  0.28503252    -0.10900
H16         H  0.43876474  0.25757053  0.27615502     0.08700
H17         H  0.44170495  0.17371133  0.19153256     0.06300
H18         H  0.44182104  0.14188846  0.30626925     0.06100
C19         C  0.36343445  0.39432633  0.16360836     0.03100
C20         C  0.39232871  0.36810605  0.16577794    -0.13000
C21         C  0.38448551  0.32998296  0.16918186     0.00600
C22         C  0.34749279  0.31813867  0.16991865    -0.11500
C23         C  0.31817543  0.34383339  0.16645784     0.03100
C24         C  0.32661625  0.38189102  0.16312377    -0.10900
H25         H  0.42084023  0.37739165  0.16618662     0.08700
H26         H  0.34172453  0.28875959  0.17321646     0.06300
H27         H  0.30454572  0.40214971  0.15973505     0.06100
C28         C  0.41480870  0.30225467  0.17192499     0.03100
C29         C  0.41491343  0.27552122  0.20025936    -0.13000
C30         C  0.44238459  0.24779024  0.20169532     0.00600
C31         C  0.47007687  0.24704461  0.17455143    -0.11500
C32         C  0.47038736  0.27371397  0.14613742     0.03100
C33         C  0.44274147  0.30136141  0.14515666    -0.10900
H34         H  0.39322780  0.27590799  0.22084161     0.08700
H35         H  0.49110206  0.22539755  0.17528211     0.06300
H36         H  0.44258519  0.32185624  0.12315762     0.06100
O37         O  0.92087319  0.73949480  0.56777652    -0.78500
C38         C  0.01172958  0.76103649  0.64706236     0.82600
O39         O  0.89462504  0.66166798  0.67033017    -0.79600
O40         O  0.93747655  0.76603397  0.74509764    -0.81100
O41         O  0.88109147  0.84051298  0.64576096    -0.80900
O42         O  0.87624904  0.78175849  0.57479698    -0.79500
Zn43       Zn  0.93864216  0.72745090  0.61970662     1.55700
O44         O  0.92729059  0.83917064  0.68709322    -0.80900
Cd45       Cd  0.87192581  0.78560243  0.63160219     1.59700
Cd46       Cd  0.88219788  0.71535437  0.68733239     1.59600
O47         O  0.81793893  0.77061635  0.64488621    -0.80900
O48         O  0.90915231  0.75273687  0.65687418    -1.91400
Cd49       Cd  0.94199184  0.78305746  0.69029152     1.59900
O50         O  0.82566816  0.72237153  0.68296550    -0.80800
O51         O  0.99716965  0.77780367  0.67450504    -0.79500
C52         C  0.91666931  0.64964493  0.64561804     0.83000
C53         C  0.89652513  0.76148812  0.55420724     0.82700
O54         O  0.99223245  0.74209880  0.62444999    -0.78500
C55         C  0.90337066  0.85695922  0.66775457     0.83500
O56         O  0.93542815  0.67176167  0.62562234    -0.78500
C57         C  0.80478481  0.74494982  0.66531064     0.83600
C58         C  0.91735227  0.74166313  0.76084664     0.84000
O59         O  0.89534976  0.72086743  0.74261427    -0.81000
C60         C  0.41911636  0.82384095  0.79493828     0.03100
C61         C  0.41967504  0.86176965  0.78561031    -0.13000
C62         C  0.41408587  0.87350982  0.74887755     0.00600
C63         C  0.40860310  0.84635713  0.72135898    -0.11500
C64         C  0.40953230  0.80823853  0.73006167     0.03100
C65         C  0.41424690  0.79718334  0.76703676    -0.10900
H66         H  0.42440235  0.88206856  0.80722521     0.08700
H67         H  0.40431826  0.85470582  0.69290484     0.06300
H68         H  0.41443052  0.76783375  0.77407242     0.06100
C69         C  0.48637232  0.63419412  0.66148874     0.03100
C70         C  0.45770574  0.66074327  0.66189487    -0.13000
C71         C  0.46581249  0.69871330  0.66647572     0.00600
C72         C  0.50289195  0.71003977  0.66977870    -0.11500
C73         C  0.53199027  0.68396736  0.66812545     0.03100
C74         C  0.52328299  0.64609378  0.66390773    -0.10900
H75         H  0.42912852  0.65176416  0.66033898     0.08700
H76         H  0.50894113  0.73928325  0.67379146     0.06300
H77         H  0.54526539  0.62555404  0.66209284     0.06100
C78         C  0.28652987  0.76071968  0.59617670     0.03100
C79         C  0.31421446  0.76116113  0.62344067    -0.13000
C80         C  0.35171889  0.75872656  0.61368366     0.00600
C81         C  0.36145648  0.75749179  0.57609222    -0.11500
C82         C  0.33405425  0.75802730  0.54820565     0.03100
C83         C  0.29660210  0.75885997  0.55880853    -0.10900
H84         H  0.30648915  0.76178404  0.65232524     0.08700
H85         H  0.39047998  0.75703874  0.56875349     0.06300
H86         H  0.27496019  0.75797916  0.53799944     0.06100
C87         C  0.40791479  0.78009361  0.70015480     0.03100
C88         C  0.43521341  0.75223124  0.69826805    -0.13000
C89         C  0.43570131  0.72671506  0.66891973     0.00600
C90         C  0.40822707  0.72891132  0.64141891    -0.11500
C91         C  0.38063714  0.75662939  0.64287114     0.03100
C92         C  0.38064543  0.78212328  0.67236321    -0.10900
H93         H  0.45662034  0.75083555  0.71935104     0.08700
H94         H  0.40850501  0.70922351  0.61872868     0.06300
H95         H  0.35964085  0.80375431  0.67350320     0.06100
O96         O  0.42899731  0.24170743  0.76537376    -0.78500
C97         C  0.33733639  0.26141611  0.68655932     0.82600
O98         O  0.45287502  0.15976849  0.66442588    -0.79600
O99         O  0.41207759  0.26702953  0.58762702    -0.81100
O100        O  0.47297774  0.33783836  0.68196083    -0.80900
O101        O  0.47408025  0.28263728  0.75634821    -0.79500
Zn102      Zn  0.41071172  0.22785619  0.71420060     1.55700
O103        O  0.42209789  0.33927285  0.64669395    -0.80900
Cd104      Cd  0.47845565  0.28344162  0.69940422     1.59700
Cd105      Cd  0.46491149  0.21273010  0.64537239     1.59600
O106        O  0.53139059  0.26505342  0.68686232    -0.80900
O107        O  0.43971593  0.25166907  0.67579300    -1.91400
Cd108      Cd  0.40706995  0.28326662  0.64294028     1.59900
O109        O  0.52189484  0.21813694  0.64777973    -0.80800
O110        O  0.35188700  0.27808361  0.65907062    -0.79500
C111        C  0.43198465  0.14882298  0.69049095     0.83000
C112        C  0.45370385  0.26366895  0.77787466     0.82700
O113        O  0.35691039  0.24254440  0.70935413    -0.78500
C114        C  0.44932885  0.35560329  0.66237377     0.83500
O115        O  0.41417774  0.17186385  0.71052032    -0.78500
C116        C  0.54362659  0.23933521  0.66587907     0.83600
C117        C  0.42923232  0.24008943  0.57209661     0.84000
O118        O  0.44898455  0.21707574  0.59059351    -0.81000
C119        C  0.06071499  0.26259529  0.73121607     0.03100
C120        C  0.04971562  0.26063420  0.76829474    -0.13000
C121        C  0.01216735  0.25756527  0.77790574     0.00600
C122        C  0.98548873  0.25690672  0.74941055    -0.11500
C123        C  0.99591697  0.25975390  0.71210128     0.03100
C124        C  0.03362081  0.26299948  0.70323460    -0.10900
H125        H  0.07076334  0.26187657  0.78967707     0.08700
H126        H  0.95648074  0.25377790  0.75607904     0.06300
H127        H  0.04196307  0.26406769  0.67454671     0.06100
C128        C  0.92774791  0.32798568  0.53211726     0.03100
C129        C  0.92558011  0.36558706  0.54256222    -0.13000
C130        C  0.92954999  0.37621321  0.57977017     0.00600
C131        C  0.93517809  0.34843778  0.60664328    -0.11500
C132        C  0.93623485  0.31065791  0.59679961     0.03100
C133        C  0.93284201  0.30060106  0.55942500    -0.10900
H134        H  0.92107010  0.38658639  0.52149887     0.08700
H135        H  0.93834059  0.35606942  0.63543104     0.06300
H136        H  0.93398181  0.27147478  0.55162848     0.06100
C137        C  0.86641443  0.13383919  0.66922912     0.03100
C138        C  0.89363430  0.16123403  0.66527655    -0.13000
C139        C  0.88370083  0.19849387  0.65878565     0.00600
C140        C  0.84605477  0.20819051  0.65558732    -0.11500
C141        C  0.81822227  0.18125840  0.66022335     0.03100
C142        C  0.82889930  0.14415789  0.66736724    -0.10900
H143        H  0.92264480  0.15352858  0.66715776     0.08700
H144        H  0.83860586  0.23687149  0.64987210     0.06300
H145        H  0.80805601  0.12298228  0.67125729     0.06100
C146        C  0.93890831  0.28179099  0.62593778     0.03100
C147        C  0.96652690  0.28360334  0.65345740    -0.13000
C148        C  0.96740932  0.25754538  0.68245923     0.00600
C149        C  0.94044398  0.22951239  0.68355801    -0.11500
C150        C  0.91270435  0.22741704  0.65632177     0.03100
C151        C  0.91221100  0.25355536  0.62751066    -0.10900
H152        H  0.98693531  0.30561505  0.65260512     0.08700
H153        H  0.94081489  0.20943605  0.70592741     0.06300
H154        H  0.89064278  0.25231078  0.60660208     0.06100
O155        O  0.93123951  0.27958684  0.06428954    -0.78500
C156        C  0.84021502  0.26341989  0.14274977     0.82600
O157        O  0.95780257  0.35990330  0.16685301    -0.79600
O158        O  0.91350028  0.25828201  0.24186291    -0.81100
O159        O  0.96916288  0.18100773  0.14450782    -0.80900
O160        O  0.97596392  0.23768130  0.07261825    -0.79500
Zn161      Zn  0.91427988  0.29366105  0.11550261     1.55700
O162        O  0.92308791  0.18364254  0.18546677    -0.80900
Cd163      Cd  0.97973199  0.23517151  0.12964284     1.59700
Cd164      Cd  0.97023239  0.30634674  0.18439536     1.59600
O165        O  0.03385071  0.24915645  0.14360692    -0.80900
O166        O  0.94297827  0.26895068  0.15390394    -1.91400
Cd167      Cd  0.90939475  0.24004526  0.18733632     1.59900
O168        O  0.02673376  0.29834964  0.18051395    -0.80800
O169        O  0.85451521  0.24637735  0.17035303    -0.79500
C170        C  0.93733227  0.37146127  0.14038090     0.83000
C171        C  0.95550106  0.25732889  0.05139180     0.82700
O172        O  0.86010012  0.28147797  0.11999863    -0.78500
C173        C  0.94659376  0.16528358  0.16643669     0.83500
O174        O  0.91974131  0.34901167  0.11955635    -0.78500
C175        C  0.04732457  0.27508210  0.16359975     0.83600
C176        C  0.93387281  0.28254626  0.25767509     0.84000
O177        O  0.95673800  0.30228285  0.23959287    -0.81000
C178        C  0.98290923  0.88876698  0.16827400     0.03100
C179        C  0.95645732  0.86043096  0.16638468    -0.13000
C180        C  0.96749867  0.82313379  0.16224876     0.00600
C181        C  0.00550132  0.81435371  0.16011531    -0.11500
C182        C  0.03249731  0.84255914  0.16206533     0.03100
C183        C  0.02058584  0.87972625  0.16572823    -0.10900
H184        H  0.92727563  0.86743729  0.16798514     0.08700
H185        H  0.01385742  0.78543471  0.15799124     0.06300
H186        H  0.04055027  0.90212933  0.16570853     0.06100
C187        C  0.79081743  0.75648938  0.23266666     0.03100
C188        C  0.81806974  0.75666498  0.20512857    -0.13000
C189        C  0.85571840  0.76042451  0.21467138     0.00600
C190        C  0.86590248  0.76289859  0.25216755    -0.11500
C191        C  0.83906252  0.76157229  0.28013135     0.03100
C192        C  0.80160541  0.75835877  0.26993538    -0.10900
H193        H  0.80986852  0.75572296  0.17630143     0.08700
H194        H  0.89483925  0.76610835  0.25947818     0.06300
H195        H  0.78051256  0.75702190  0.29104553     0.06100
C196        C  0.92009246  0.69465839  0.03476955     0.03100
C197        C  0.91712685  0.72154139  0.06273170    -0.13000
C198        C  0.91530320  0.71069086  0.09995469     0.00600
C199        C  0.91664780  0.67272087  0.10908560    -0.11500
C200        C  0.91960562  0.64535729  0.08143976     0.03100
C201        C  0.92094823  0.65678927  0.04428366    -0.10900
H202        H  0.91643889  0.75085392  0.05556765     0.08700
H203        H  0.91668221  0.66478289  0.13794798     0.06300
H204        H  0.92195801  0.63626805  0.02239596     0.06100
C205        C  0.91334885  0.73893176  0.12961502     0.03100
C206        C  0.88566731  0.73695114  0.15668362    -0.13000
C207        C  0.88446982  0.76299278  0.18560868     0.00600
C208        C  0.91129557  0.79123661  0.18710938    -0.11500
C209        C  0.93922349  0.79339575  0.16032102     0.03100
C210        C  0.94000120  0.76718131  0.13161083    -0.10900
H211        H  0.86530708  0.71489722  0.15542099     0.08700
H212        H  0.91057027  0.81149093  0.20928847     0.06300
H213        H  0.96150436  0.76863297  0.11089157     0.06100
O214        O  0.32029498  0.76409099  0.17980019    -0.78500
C215        C  0.40094185  0.67310725  0.16314550     0.82600
O216        O  0.42259622  0.78374768  0.26523435    -0.79600
O217        O  0.49898100  0.74865830  0.15766486    -0.81100
O218        O  0.39973188  0.80724657  0.08711537    -0.80900
O219        O  0.33020911  0.81523790  0.14666493    -0.79500
Zn220      Zn  0.37121727  0.74606114  0.19583993     1.55700
O221        O  0.43859654  0.75872768  0.08635322    -0.80900
Cd222      Cd  0.38743995  0.81580547  0.14227809     1.59700
Cd223      Cd  0.44080960  0.79869513  0.21321345     1.59600
O224        O  0.40548575  0.86824112  0.15859969    -0.80900
O225        O  0.41024570  0.77558935  0.17340643    -1.91400
Cd226      Cd  0.44354339  0.74389047  0.14185654     1.59900
O227        O  0.43827107  0.85604594  0.20959189    -0.80800
O228        O  0.42845485  0.68837730  0.14727239    -0.79500
C229        C  0.39480673  0.76470648  0.27550924     0.83000
C230        C  0.30819805  0.79213369  0.16166774     0.82700
O231        O  0.37723593  0.69209791  0.18126165    -0.78500
C232        C  0.41994161  0.78399700  0.06965483     0.83500
O233        O  0.37319002  0.74940909  0.25203811    -0.78500
C234        C  0.42424471  0.87907600  0.18655417     0.83600
C235        C  0.51439861  0.76444866  0.18530504     0.84000
O236        O  0.49573014  0.78322640  0.20865301    -0.81000
C237        C  0.61705058  0.74743514  0.16801209    -0.10800
C238        C  0.63275109  0.75758399  0.20225201     0.06300
C239        C  0.60889452  0.76859166  0.23088361    -0.09600
C240        C  0.57070450  0.77064970  0.22520187    -0.11200
C241        C  0.55503089  0.76112986  0.19091182    -0.01000
C242        C  0.57856750  0.74903047  0.16245737    -0.10100
C243        C  0.67370734  0.75763473  0.20832302     0.06300
H244        H  0.61968068  0.77555868  0.25795826     0.08300
H245        H  0.55338793  0.77958666  0.24789798     0.11700
H246        H  0.56732599  0.74154477  0.13568768     0.12000
H247        H  0.63450290  0.73911035  0.14522172     0.08300
C248        C  0.69693641  0.73063710  0.19205050    -0.10800
C249        C  0.73521246  0.73050992  0.19916972    -0.10100
C250        C  0.75082803  0.75703849  0.22305710    -0.01000
C251        C  0.72781047  0.78427043  0.23873669    -0.11200
C252        C  0.68989598  0.78479160  0.23122827    -0.09600
H253        H  0.68548095  0.70910679  0.17452800     0.08300
H254        H  0.75245579  0.70915659  0.18685261     0.12000
H255        H  0.73929819  0.80541245  0.25675195     0.11700
H256        H  0.67328763  0.80672534  0.24336428     0.08300
C257        C  0.12473311  0.79602147  0.13834538    -0.10800
C258        C  0.15004848  0.81895089  0.15704209     0.06300
C259        C  0.13663468  0.84904804  0.17774497    -0.09600
C260        C  0.09865452  0.85606759  0.17993748    -0.11200
C261        C  0.07300765  0.83375707  0.16063519    -0.01000
C262        C  0.08663115  0.80355531  0.13979493    -0.10100
C263        C  0.19039470  0.81134227  0.15581926     0.06300
H264        H  0.15559104  0.86673145  0.19291842     0.08300
H265        H  0.08949105  0.87883937  0.19724959     0.11700
H266        H  0.06800285  0.78604682  0.12409305     0.12000
H267        H  0.13452218  0.77267646  0.12209570     0.08300
C268        C  0.20438616  0.77598737  0.16506821    -0.10800
C269        C  0.24264437  0.76963413  0.16672169    -0.10100
C270        C  0.26764954  0.79835654  0.15848516    -0.01000
C271        C  0.25350483  0.83344127  0.14814851    -0.11200
C272        C  0.21528199  0.83994817  0.14716949    -0.09600
H273        H  0.18570713  0.75359613  0.17209098     0.08300
H274        H  0.25265441  0.74227419  0.17465054     0.12000
H275        H  0.27199420  0.85615509  0.14167347     0.11700
H276        H  0.20509013  0.86741447  0.13981759     0.08300
C277        C  0.95687947  0.06470063  0.13866215    -0.10800
C278        C  0.95208700  0.04611553  0.17238859     0.06300
C279        C  0.94465167  0.06699823  0.20437713    -0.09600
C280        C  0.94189083  0.10588793  0.20252244    -0.11200
C281        C  0.94754684  0.12436184  0.16885272    -0.01000
C282        C  0.95498722  0.10344303  0.13698905    -0.10100
C283        C  0.95654616  0.00517366  0.17401992     0.06300
H284        H  0.94090059  0.05320141  0.23069346     0.08300
H285        H  0.93628680  0.12155672  0.22745127     0.11700
H286        H  0.95924742  0.11712207  0.11068005     0.12000
H287        H  0.96306379  0.04926496  0.11372510     0.08300
C288        C  0.93943394  0.98240550  0.14741986    -0.10800
C289        C  0.94668918  0.94414772  0.14657096    -0.10100
C290        C  0.97163673  0.92819320  0.17192827    -0.01000
C291        C  0.98788736  0.95072503  0.19921151    -0.11200
C292        C  0.98017545  0.98887209  0.20043828    -0.09600
H293        H  0.92098068  0.99438174  0.12687358     0.08300
H294        H  0.93404393  0.92727711  0.12519243     0.12000
H295        H  0.00714289  0.93886574  0.21909099     0.11700
H296        H  0.99390790  0.00589797  0.22100899     0.08300
C297        C  0.90647146  0.55315938  0.13172330    -0.10800
C298        C  0.92676042  0.52869489  0.10937508     0.06300
C299        C  0.94484237  0.54249710  0.07813705    -0.09600
C300        C  0.94291168  0.58030638  0.06941652    -0.11200
C301        C  0.92202227  0.60506179  0.09124905    -0.01000
C302        C  0.90373616  0.59091053  0.12252380    -0.10100
C303        C  0.92863428  0.48861424  0.11802732     0.06300
H304        H  0.96092334  0.52401698  0.06075507     0.08300
H305        H  0.95824847  0.59009054  0.04576192     0.11700
H306        H  0.88680452  0.60879323  0.13964607     0.12000
H307        H  0.89206005  0.54285928  0.15578848     0.08300
C308        C  0.94185960  0.47623815  0.15245054    -0.10800
C309        C  0.94490622  0.43808960  0.15982950    -0.10100
C310        C  0.93405511  0.41183679  0.13311477    -0.01000
C311        C  0.92023310  0.42445951  0.09892299    -0.11200
C312        C  0.91785868  0.46248184  0.09135647    -0.09600
H313        H  0.95046804  0.49609296  0.17328512     0.08300
H314        H  0.95557977  0.42915287  0.18642673     0.12000
H315        H  0.91175146  0.40492899  0.07774217     0.11700
H316        H  0.90744996  0.47157078  0.06469378     0.08300
C317        C  0.89726208  0.32437994  0.43172405    -0.10800
C318        C  0.92588649  0.30327288  0.41590328     0.06300
C319        C  0.95394303  0.28865714  0.43877320    -0.09600
C320        C  0.95369928  0.29548504  0.47680670    -0.11200
C321        C  0.92583062  0.31772988  0.49249415    -0.01000
C322        C  0.89744553  0.33188854  0.46966558    -0.10100
C323        C  0.92751739  0.29792776  0.37542570     0.06300
H324        H  0.97621236  0.27221343  0.42708877     0.08300
H325        H  0.97599405  0.28449608  0.49380234     0.11700
H326        H  0.87561322  0.34902708  0.48118700     0.12000
H327        H  0.87545896  0.33602850  0.41452399     0.08300
C328        C  0.89769342  0.28215365  0.35602642    -0.10800
C329        C  0.89976548  0.27678305  0.31775506    -0.10100
C330        C  0.93136430  0.28792510  0.29816729    -0.01000
C331        C  0.96087432  0.30431637  0.31766699    -0.11200
C332        C  0.95910986  0.30890179  0.35594175    -0.09600
H333        H  0.87306124  0.27352776  0.37059557     0.08300
H334        H  0.87653604  0.26426823  0.30344359     0.12000
H335        H  0.98560244  0.31315471  0.30338891     0.11700
H336        H  0.98228733  0.32141557  0.37036089     0.08300
C337        C  0.98442865  0.22237503  0.95694195    -0.10800
C338        C  0.97334022  0.25200241  0.93380253     0.06300
C339        C  0.95502024  0.28267092  0.94977244    -0.09600
C340        C  0.94843190  0.28390580  0.98777519    -0.11200
C341        C  0.96050584  0.25480583  0.01089324    -0.01000
C342        C  0.97839183  0.22392486  0.99505596    -0.10100
C343        C  0.98211888  0.25168666  0.89354073     0.06300
H344        H  0.94667008  0.30634307  0.93312836     0.08300
H345        H  0.93483160  0.30822081  0.99921734     0.11700
H346        H  0.98769260  0.20089858  0.01214296     0.12000
H347        H  0.99785768  0.19791405  0.94566561     0.08300
C348        C  0.01524522  0.23556221  0.88082665    -0.10800
C349        C  0.02442469  0.23668991  0.84340281    -0.10100
C350        C  0.00115814  0.25466258  0.81756150    -0.01000
C351        C  0.96772919  0.27032325  0.83017720    -0.11200
C352        C  0.95821308  0.26858768  0.86757388    -0.09600
H353        H  0.03465933  0.22269833  0.89987613     0.08300
H354        H  0.04994176  0.22342797  0.83483573     0.12000
H355        H  0.94916026  0.28469416  0.81135677     0.11700
H356        H  0.93213030  0.28071271  0.87611183     0.08300
C357        C  0.23417146  0.27501146  0.66894984    -0.10800
C358        C  0.21889634  0.26402139  0.70295405     0.06300
C359        C  0.24322809  0.25356957  0.73171531    -0.09600
C360        C  0.28150163  0.25300639  0.72635007    -0.11200
C361        C  0.29669275  0.26349278  0.69227253    -0.01000
C362        C  0.27262584  0.27497454  0.66375908    -0.10100
C363        C  0.17792466  0.26299783  0.70858582     0.06300
H364        H  0.23278611  0.24596406  0.75863380     0.08300
H365        H  0.29925008  0.24443930  0.74906445     0.11700
H366        H  0.28346113  0.28309754  0.63712792     0.12000
H367        H  0.21644793  0.28284537  0.64599449     0.08300
C368        C  0.15415162  0.28913917  0.69143659    -0.10800
C369        C  0.11590573  0.28859595  0.69796202    -0.10100
C370        C  0.10073973  0.26230220  0.72219175    -0.01000
C371        C  0.12423824  0.23580236  0.73873202    -0.11200
C372        C  0.16222043  0.23592018  0.73178865    -0.09600
H373        H  0.16512705  0.31064431  0.67370103     0.08300
H374        H  0.09831871  0.30938078  0.68496315     0.12000
H375        H  0.11310414  0.21478889  0.75700126     0.11700
H376        H  0.17923461  0.21458182  0.74460174     0.08300
C377        C  0.72803905  0.23580296  0.67035446    -0.10800
C378        C  0.70156627  0.20999972  0.65789814     0.06300
C379        C  0.71400251  0.17520915  0.64495441    -0.09600
C380        C  0.75172475  0.16638248  0.64471751    -0.11200
C381        C  0.77815352  0.19171505  0.65825115    -0.01000
C382        C  0.76574390  0.22667953  0.67083329    -0.10100
C383        C  0.66118233  0.21892431  0.65907039     0.06300
H384        H  0.69457466  0.15434236  0.63558488     0.08300
H385        H  0.76005311  0.13952700  0.63394583     0.11700
H386        H  0.78500731  0.24685454  0.68188584     0.12000
H387        H  0.71969338  0.26313612  0.67988406     0.08300
C388        C  0.64645308  0.24097537  0.68765400    -0.10800
C389        C  0.60843363  0.24834916  0.68937297    -0.10100
C390        C  0.58411705  0.23338909  0.66289413    -0.01000
C391        C  0.59874775  0.21163983  0.63417111    -0.11200
C392        C  0.63680328  0.20474682  0.63210924    -0.09600
H393        H  0.66412029  0.25183387  0.70932284     0.08300
H394        H  0.59797484  0.26498194  0.71201924     0.12000
H395        H  0.58076136  0.19995946  0.61316697     0.11700
H396        H  0.64706853  0.18837118  0.60922403     0.08300
C397        C  0.33081280  0.77690655  0.44462551    -0.10800
C398        C  0.36229016  0.75783369  0.43201725     0.06300
C399        C  0.38492026  0.73913751  0.45777601    -0.09600
C400        C  0.37580336  0.73894905  0.49537935    -0.11200
C401        C  0.34418484  0.75806169  0.50816291    -0.01000
C402        C  0.32207730  0.77734778  0.48219011    -0.10100
C403        C  0.37131194  0.75771625  0.39204756     0.06300
H404        H  0.40925746  0.72404484  0.44867680     0.08300
H405        H  0.39323962  0.72329792  0.51427319     0.11700
H406        H  0.29813958  0.79328190  0.49085042     0.12000
H407        H  0.31324447  0.79204225  0.42539452     0.08300
C408        C  0.34399975  0.74896391  0.36568899    -0.10800
C409        C  0.35191747  0.75023433  0.32790371    -0.10100
C410        C  0.38715509  0.76096765  0.31561520    -0.01000
C411        C  0.41458712  0.76940735  0.34206864    -0.11200
C412        C  0.40683384  0.76745975  0.37989584    -0.09600
H413        H  0.31645752  0.74114843  0.37438693     0.08300
H414        H  0.33016133  0.74365766  0.30828608     0.12000
H415        H  0.44203247  0.77770021  0.33352300     0.11700
H416        H  0.42829647  0.77453287  0.39966988     0.08300
C417        C  0.42822006  0.45835780  0.64728052    -0.10800
C418        C  0.46243367  0.47471850  0.65639250     0.06300
C419        C  0.49257001  0.45126478  0.66505532    -0.09600
C420        C  0.48827679  0.41271337  0.66632242    -0.11200
C421        C  0.45388180  0.39639675  0.65836089    -0.01000
C422        C  0.42404107  0.41954398  0.64807394    -0.10100
C423        C  0.46683254  0.51594677  0.65813606     0.06300
H424        H  0.51961990  0.46270185  0.67109957     0.08300
H425        H  0.51198824  0.39563881  0.67375567     0.11700
H426        H  0.39718509  0.40774656  0.64181074     0.12000
H427        H  0.40436936  0.47553831  0.64067612     0.08300
C428        C  0.44868281  0.53975754  0.63284572    -0.10800
C429        C  0.45422681  0.57838475  0.63425305    -0.10100
C430        C  0.47831796  0.59377291  0.66067971    -0.01000
C431        C  0.49572064  0.57013696  0.68637193    -0.11200
C432        C  0.48986174  0.53181559  0.68530406    -0.09600
H433        H  0.43093372  0.52850883  0.61143393     0.08300
H434        H  0.44055794  0.59611606  0.61410890     0.12000
H435        H  0.51386027  0.58142142  0.70747742     0.11700
H436        H  0.50337815  0.51461038  0.70596945     0.08300
C437        C  0.39522322  0.78403834  0.88845983    -0.10800
C438        C  0.42462209  0.79696381  0.91045830     0.06300
C439        C  0.45360372  0.81660852  0.89378856    -0.09600
C440        C  0.45231911  0.82467287  0.85595428    -0.11200
C441        C  0.42247401  0.81243314  0.83411488    -0.01000
C442        C  0.39437611  0.79133874  0.85051439    -0.10100
C443        C  0.42350108  0.79250296  0.95106217     0.06300
H444        H  0.47639985  0.82701456  0.91032997     0.08300
H445        H  0.47428905  0.84095783  0.84379627     0.11700
H446        H  0.37101160  0.78185060  0.83421208     0.12000
H447        H  0.37260843  0.76884053  0.90082610     0.08300
C448        C  0.39321136  0.80658776  0.97081144    -0.10800
C449        C  0.39227891  0.80393424  0.00928510    -0.10100
C450        C  0.42130475  0.78645576  0.02881186    -0.01000
C451        C  0.45137644  0.77171742  0.00894207    -0.11200
C452        C  0.45268726  0.77516563  0.97038383    -0.09600
H453        H  0.37054020  0.82028889  0.95643800     0.08300
H454        H  0.36864774  0.81536890  0.02376122     0.12000
H455        H  0.47414605  0.75814628  0.02325737     0.11700
H456        H  0.47630026  0.76411058  0.95559583     0.08300
C457        C  0.43165569  0.96389986  0.69697169    -0.10800
C458        C  0.41918169  0.99092585  0.72219151     0.06300
C459        C  0.40401874  0.97885862  0.75583313    -0.09600
C460        C  0.40159331  0.94091598  0.76408031    -0.11200
C461        C  0.41492440  0.91392034  0.73925676    -0.01000
C462        C  0.42985470  0.92597984  0.70550892    -0.10100
C463        C  0.42229228  0.03144706  0.71363319     0.06300
H464        H  0.39452540  0.99871078  0.77622053     0.08300
H465        H  0.38923583  0.93281521  0.79002037     0.11700
H466        H  0.44089159  0.90620625  0.68583382     0.12000
H467        H  0.44284378  0.97196125  0.67049124     0.08300
C468        C  0.45230227  0.04511669  0.69306194    -0.10800
C469        C  0.45520150  0.08311319  0.68509527    -0.10100
C470        C  0.42850459  0.10845889  0.69801290    -0.01000
C471        C  0.39869614  0.09496982  0.71877496    -0.11200
C472        C  0.39544218  0.05693189  0.72620905    -0.09600
H473        H  0.47398202  0.02658940  0.68358055     0.08300
H474        H  0.47873628  0.09273737  0.66938912     0.12000
H475        H  0.37757080  0.11380376  0.72894723     0.11700
H476        H  0.37156919  0.04752358  0.74148172     0.08300
C477        C  0.11498300  0.77438762  0.66355977    -0.10800
C478        C  0.12969585  0.76378595  0.62916843     0.06300
C479        C  0.10506078  0.75394726  0.60060961    -0.09600
C480        C  0.06694793  0.75337718  0.60652720    -0.11200
C481        C  0.05223342  0.76321442  0.64100694    -0.01000
C482        C  0.07660160  0.77425310  0.66936851    -0.10100
C483        C  0.17042326  0.76224545  0.62277098     0.06300
H484        H  0.11521004  0.74670115  0.57345135     0.08300
H485        H  0.04893978  0.74526606  0.58392188     0.11700
H486        H  0.06607281  0.78193592  0.69627560     0.12000
H487        H  0.13312019  0.78190602  0.68624582     0.08300
C488        C  0.19443376  0.78891393  0.63820645    -0.10800
C489        C  0.23239911  0.78805514  0.63029499    -0.10100
C490        C  0.24690868  0.76080880  0.60650138    -0.01000
C491        C  0.22318326  0.73373577  0.59184210    -0.11200
C492        C  0.18551230  0.73423278  0.60011961    -0.09600
H493        H  0.18377886  0.81101190  0.65554988     0.08300
H494        H  0.25026017  0.80926319  0.64187101     0.12000
H495        H  0.23388888  0.71204809  0.57399125     0.11700
H496        H  0.16816295  0.71256677  0.58865643     0.08300
C497        C  0.88932765  0.71934513  0.85889763    -0.10800
C498        C  0.92151170  0.72816971  0.87886172     0.06300
C499        C  0.95245392  0.74180458  0.85989443    -0.09600
C500        C  0.95104515  0.74687078  0.82153104    -0.11200
C501        C  0.91899570  0.73742524  0.80147094    -0.01000
C502        C  0.88820536  0.72355189  0.82055700    -0.10100
C503        C  0.92282235  0.72207807  0.91926565     0.06300
H504        H  0.97755864  0.74876481  0.87482929     0.08300
H505        H  0.97518978  0.75750750  0.80748028     0.11700
H506        H  0.86307684  0.71622315  0.80583787     0.12000
H507        H  0.86526519  0.70850129  0.87294899     0.08300
C508        C  0.89510743  0.73700489  0.94205672    -0.10800
C509        C  0.89495798  0.72921180  0.97992559    -0.10100
C510        C  0.92205292  0.70569615  0.99542663    -0.01000
C511        C  0.95007179  0.69120873  0.97270812    -0.11200
C512        C  0.95066776  0.69964149  0.93500189    -0.09600
H513        H  0.87341337  0.75443491  0.93043614     0.08300
H514        H  0.87299963  0.74050316  0.99689826     0.12000
H515        H  0.97130699  0.67309387  0.98414630     0.11700
H516        H  0.97214400  0.68765609  0.91787605     0.08300
C517        C  0.88768674  0.95764315  0.64140565    -0.10800
C518        C  0.89619152  0.97620833  0.67442570     0.06300
C519        C  0.90760538  0.95548459  0.70539295    -0.09600
C520        C  0.91076138  0.91662801  0.70317608    -0.11200
C521        C  0.90147151  0.89798727  0.67027922    -0.01000
C522        C  0.88989101  0.91888692  0.63946296    -0.10100
C523        C  0.89191738  0.01706707  0.67633364     0.06300
H524        H  0.91423602  0.96940216  0.73111770     0.08300
H525        H  0.91966485  0.90110298  0.72732823     0.11700
H526        H  0.88279588  0.90523683  0.61371411     0.12000
H527        H  0.87860129  0.97316377  0.61730289     0.08300
C528        C  0.91052225  0.03986917  0.65109713    -0.10800
C529        C  0.90337429  0.07812587  0.64994646    -0.10100
C530        C  0.87698898  0.09412416  0.67358235    -0.01000
C531        C  0.85919534  0.07140480  0.69960930    -0.11200
C532        C  0.86683320  0.03319288  0.70116255    -0.09600
H533        H  0.92996405  0.02786504  0.63172040     0.08300
H534        H  0.91727593  0.09494891  0.62947149     0.12000
H535        H  0.83895081  0.08313154  0.71831276     0.11700
H536        H  0.85204563  0.01596516  0.72066511     0.08300
C537        C  0.86821367  0.79571977  0.45903640    -0.10800
C538        C  0.87734617  0.76507964  0.43653013     0.06300
C539        C  0.89410678  0.73372970  0.45316008    -0.09600
C540        C  0.90120000  0.73293853  0.49120397    -0.11200
C541        C  0.89113301  0.76318947  0.51365264    -0.01000
C542        C  0.87469605  0.79463127  0.49714546    -0.10100
C543        C  0.86847811  0.76540518  0.39617900     0.06300
H544        H  0.90092545  0.70932018  0.43698941     0.08300
H545        H  0.91359417  0.70817846  0.50322055     0.11700
H546        H  0.86695427  0.81851615  0.51371549     0.12000
H547        H  0.85607234  0.82068719  0.44725071     0.08300
C548        C  0.83635124  0.78340113  0.38290171    -0.10800
C549        C  0.82733528  0.78282958  0.34531302    -0.10100
C550        C  0.84985584  0.76376940  0.31991160    -0.01000
C551        C  0.88223133  0.74616011  0.33304097    -0.11200
C552        C  0.89150816  0.74711480  0.37063024    -0.09600
H553        H  0.81760436  0.79736602  0.40162403     0.08300
H554        H  0.80256685  0.79733693  0.33619496     0.12000
H555        H  0.90009568  0.73095156  0.31439330     0.11700
H556        H  0.91679528  0.73347541  0.37961705     0.08300
C557        C  0.90980402  0.46473883  0.63399317    -0.10800
C558        C  0.92527616  0.49227496  0.61122563     0.06300
C559        C  0.94188986  0.48122535  0.57788665    -0.09600
C560        C  0.94341064  0.44370016  0.56782128    -0.11200
C561        C  0.92788184  0.41620080  0.59053775    -0.01000
C562        C  0.91088767  0.42723351  0.62367101    -0.10100
C563        C  0.92389317  0.53234362  0.62191567     0.06300
H564        H  0.95347386  0.50160168  0.55924663     0.08300
H565        H  0.95713759  0.43624160  0.54234807     0.11700
H566        H  0.89811953  0.40690942  0.64158395     0.12000
H567        H  0.89714645  0.47204112  0.66004972     0.08300
C568        C  0.89318311  0.54706887  0.64085138    -0.10800
C569        C  0.89138521  0.58495996  0.64963486    -0.10100
C570        C  0.91994408  0.60910399  0.63915290    -0.01000
C571        C  0.95088754  0.59441171  0.62079976    -0.11200
C572        C  0.95300265  0.55645227  0.61259221    -0.09600
H573        H  0.86997828  0.52957972  0.64801621     0.08300
H574        H  0.86705090  0.59557413  0.66355403     0.12000
H575        H  0.97350031  0.61231005  0.61270944     0.11700
H576        H  0.97752215  0.54604920  0.59888782     0.08300
C577        C  0.70249997  0.74511287  0.64127122    -0.10800
C578        C  0.68719708  0.72654346  0.67185186     0.06300
C579        C  0.71092294  0.71603474  0.70107514    -0.09600
C580        C  0.74897156  0.72255459  0.69912450    -0.11200
C581        C  0.76420651  0.74047247  0.66829005    -0.01000
C582        C  0.74051968  0.75229278  0.63968061    -0.10100
C583        C  0.64706468  0.71681442  0.67259724     0.06300
H584        H  0.70018886  0.70256878  0.72550092     0.08300
H585        H  0.76653951  0.71347405  0.72178758     0.11700
H586        H  0.75156953  0.76587850  0.61543453     0.12000
H587        H  0.68536125  0.75309110  0.61792924     0.08300
C588        C  0.62029695  0.74005760  0.65589866    -0.10800
C589        C  0.58300603  0.72968233  0.65477683    -0.10100
C590        C  0.57138098  0.69601815  0.67076783    -0.01000
C591        C  0.59796263  0.67339962  0.68850880    -0.11200
C592        C  0.63527047  0.68345242  0.68909956    -0.09600
H593        H  0.62811039  0.76627803  0.64349202     0.08300
H594        H  0.56345901  0.74770906  0.64059773     0.12000
H595        H  0.59003749  0.64768581  0.70186332     0.11700
H596        H  0.65494617  0.66448627  0.70180034     0.08300
C597        C  0.35687386  0.49702766  0.18598109    -0.10800
C598        C  0.38281613  0.51273498  0.16175636     0.06300
C599        C  0.40363082  0.48875707  0.13900755    -0.09600
C600        C  0.39799051  0.45016286  0.13997891    -0.11200
C601        C  0.37114837  0.43486981  0.16337991    -0.01000
C602        C  0.35096690  0.45867929  0.18659653    -0.10100
C603        C  0.38758004  0.55394270  0.16026882     0.06300
H604        H  0.42363781  0.49982869  0.11980602     0.08300
H605        H  0.41385630  0.43237182  0.12174550     0.11700
H606        H  0.33066896  0.44752662  0.20548777     0.12000
H607        H  0.34115067  0.51435256  0.20473914     0.08300
C608        C  0.35694144  0.57775123  0.16535569    -0.10800
C609        C  0.36134712  0.61634737  0.16603935    -0.10100
C610        C  0.39636827  0.63223780  0.16090221    -0.01000
C611        C  0.42688576  0.60869479  0.15457734    -0.11200
C612        C  0.42259635  0.56993577  0.15452387    -0.09600
H613        H  0.32938050  0.56659469  0.16879394     0.08300
H614        H  0.33722846  0.63381127  0.17045051     0.12000
H615        H  0.45425694  0.62021101  0.15070227     0.11700
H616        H  0.44687659  0.55254676  0.15091145     0.08300
C617        C  0.14124899  0.30631865  0.19777127    -0.10800
C618        C  0.16453432  0.29555094  0.16857677     0.06300
C619        C  0.14923434  0.27484425  0.13922966    -0.09600
C620        C  0.11138295  0.26655270  0.13842255    -0.11200
C621        C  0.08795261  0.27932694  0.16659892    -0.01000
C622        C  0.10340739  0.29866499  0.19659210    -0.10100
C623        C  0.20405783  0.30742878  0.16812589     0.06300
H624        H  0.16611632  0.26629984  0.11609758     0.08300
H625        H  0.10017494  0.25165835  0.11490468     0.11700
H626        H  0.08610078  0.30835020  0.21900145     0.12000
H627        H  0.15212303  0.32117533  0.22144099     0.08300
C628        C  0.21431677  0.34212821  0.18292979    -0.10800
C629        C  0.25117124  0.35360533  0.18272776    -0.10100
C630        C  0.27887759  0.33115887  0.16690924    -0.01000
C631        C  0.26860852  0.29662081  0.15164097    -0.11200
C632        C  0.23174235  0.28478792  0.15249615    -0.09600
H633        H  0.19380125  0.36080637  0.19444906     0.08300
H634        H  0.25787134  0.38005306  0.19537213     0.12000
H635        H  0.28895138  0.27877142  0.13864534     0.11700
H636        H  0.22505154  0.25776099  0.14110968     0.08300
C637        C  0.41897110  0.26124379  0.46947447    -0.10800
C638        C  0.42998870  0.22720212  0.45348528     0.06300
C639        C  0.43812637  0.19703538  0.47705546    -0.09600
C640        C  0.43702343  0.20116624  0.51537900    -0.11200
C641        C  0.42715221  0.23541204  0.53137756    -0.01000
C642        C  0.41738785  0.26524062  0.50801738    -0.10100
C643        C  0.43378510  0.22290427  0.41260480     0.06300
H644        H  0.44553416  0.17005127  0.46591681     0.08300
H645        H  0.44418936  0.17745951  0.53255127     0.11700
H646        H  0.40976134  0.29202263  0.51951853     0.12000
H647        H  0.41266558  0.28515320  0.45229201     0.08300
C648        C  0.40929643  0.24083173  0.38781932    -0.10800
C649        C  0.41204224  0.23480259  0.34962421    -0.10100
C650        C  0.43905194  0.21045271  0.33550263    -0.01000
C651        C  0.46419539  0.19353518  0.36005981    -0.11200
C652        C  0.46179907  0.19989084  0.39802054    -0.09600
H653        H  0.38725891  0.25855969  0.39795064     0.08300
H654        H  0.39219970  0.24803629  0.33123265     0.12000
H655        H  0.48566278  0.17512309  0.34982470     0.11700
H656        H  0.48193407  0.18654577  0.41598034     0.08300
C657        C  0.45623441  0.06174294  0.19517203    -0.10800
C658        C  0.43686876  0.03645578  0.21732426     0.06300
C659        C  0.41870240  0.04951282  0.24893287    -0.09600
C660        C  0.41986034  0.08716187  0.25836296    -0.11200
C661        C  0.43989962  0.11265689  0.23682000    -0.01000
C662        C  0.45804350  0.09943259  0.20500035    -0.10100
C663        C  0.43581312  0.99632944  0.20817416     0.06300
H664        H  0.40316206  0.03054782  0.26613515     0.08300
H665        H  0.40459768  0.09628129  0.28238536     0.11700
H666        H  0.47415910  0.11801810  0.18797870     0.12000
H667        H  0.47064055  0.05215892  0.17076760     0.08300
C668        C  0.42402336  0.98412242  0.17320276    -0.10800
C669        C  0.42050418  0.94597783  0.16585905    -0.10100
C670        C  0.42936178  0.91946149  0.19320054    -0.01000
C671        C  0.44224916  0.93190351  0.22776594    -0.11200
C672        C  0.44516996  0.96989493  0.23523227    -0.09600
H673        H  0.41651725  0.00410988  0.15199182     0.08300
H674        H  0.41060786  0.93726649  0.13893522     0.12000
H675        H  0.44930619  0.91227976  0.24944822     0.11700
H676        H  0.45456694  0.97871853  0.26231013     0.08300
C677        C  0.66497632  0.29502785  0.09884389    -0.10800
C678        C  0.68077770  0.26668536  0.12080733     0.06300
C679        C  0.65715345  0.24012761  0.13681787    -0.09600
C680        C  0.61886233  0.24154736  0.13044123    -0.11200
C681        C  0.60354359  0.26918325  0.10751229    -0.01000
C682        C  0.62688993  0.29605424  0.09204341    -0.10100
C683        C  0.72171580  0.26470230  0.12636524     0.06300
H684        H  0.66829912  0.21765320  0.15350236     0.08300
H685        H  0.60133929  0.22040204  0.14244516     0.11700
H686        H  0.61556454  0.31791623  0.07463329     0.12000
H687        H  0.68202532  0.31655065  0.08686583     0.08300
C688        C  0.74582072  0.27502050  0.09775621    -0.10800
C689        C  0.78416130  0.27431038  0.10306992    -0.10100
C690        C  0.79952537  0.26277997  0.13696881    -0.01000
C691        C  0.77560234  0.25163590  0.16535609    -0.11200
C692        C  0.73713872  0.25277280  0.16018742    -0.09600
H693        H  0.73511200  0.28345609  0.07102652     0.08300
H694        H  0.80180727  0.28271999  0.08048821     0.12000
H695        H  0.78657669  0.24278886  0.19186410     0.11700
H696        H  0.71951192  0.24505029  0.18299780     0.08300
C697        C  0.48430115  0.30007053  0.87136277    -0.10800
C698        C  0.47456544  0.27064845  0.89509578     0.06300
C699        C  0.45649544  0.23950993  0.87983459    -0.09600
C700        C  0.44876680  0.23772398  0.84195012    -0.11200
C701        C  0.45951911  0.26668689  0.81828502    -0.01000
C702        C  0.47723232  0.29792545  0.83341976    -0.10100
C703        C  0.48408305  0.27207422  0.93529070     0.06300
H704        H  0.44913609  0.21597610  0.89692538     0.08300
H705        H  0.43537525  0.21312155  0.83100906     0.11700
H706        H  0.48555528  0.32083384  0.81589966     0.12000
H707        H  0.49737290  0.32493296  0.88202706     0.08300
C708        C  0.51653557  0.28992301  0.94746527    -0.10800
C709        C  0.52588670  0.29091166  0.98494114    -0.10100
C710        C  0.50355044  0.27334617  0.01139898    -0.01000
C711        C  0.47100059  0.25560183  0.99931908    -0.11200
C712        C  0.46126278  0.25521279  0.96183346    -0.09600
H713        H  0.53523912  0.30270090  0.92801140     0.08300
H714        H  0.55077192  0.30551737  0.99309414     0.12000
H715        H  0.45328497  0.24135909  0.01870450     0.11700
H716        H  0.43574732  0.24170789  0.95374872     0.08300
loop_ 
_geom_bond_atom_site_label_1 
_geom_bond_atom_site_label_2 
_geom_bond_distance 
_geom_bond_site_symmetry_2 
_ccdc_geom_bond_type 
C1            C2   1.402       .  A
C1            C6   1.403       .  A
C1          C681   1.480       .  S
C2            C3   1.406       .  A
C2            H7   1.083       .  S
C3            C4   1.407       .  A
C3          C710   1.493       .  S
C4            C5   1.407       .  A
C4            H8   1.083       .  S
C5            C6   1.405       .  A
C5           C32   1.483       .  S
C6            H9   1.084       .  S
C10          C11   1.404       .  A
C10          C15   1.405       .  A
C10         C650   1.485       .  S
C11          C12   1.406       .  A
C11          H16   1.084       .  S
C12          C13   1.405       .  A
C12          C30   1.481       .  S
C13          C14   1.406       .  A
C13          H17   1.083       .  S
C14          C15   1.407       .  A
C14         C661   1.493       .  S
C15          H18   1.083       .  S
C19          C20   1.404       .  A
C19          C24   1.405       .  A
C19         C601   1.483       .  S
C20          C21   1.405       .  A
C20          H25   1.084       .  S
C21          C22   1.404       .  A
C21          C28   1.479       .  S
C22          C23   1.406       .  A
C22          H26   1.083       .  S
C23          C24   1.407       .  A
C23         C630   1.492       .  S
C24          H27   1.083       .  S
C28          C29   1.404       .  A
C28          C33   1.403       .  A
C29          C30   1.403       .  A
C29          H34   1.084       .  S
C30          C31   1.406       .  A
C31          C32   1.405       .  A
C31          H35   1.084       .  S
C32          C33   1.405       .  A
C33          H36   1.084       .  S
O37          C53   1.275       .  A
O37         Zn43   2.028       .  S
C38         C481   1.483       .  S
C38          O54   1.275   1_455  A
C38          O51   1.276   1_455  A
O39          C52   1.275       .  A
O39         Cd46   2.071       .  S
O40          C58   1.276       .  A
O40         Cd49   2.083       .  S
O41          C55   1.276       .  A
O41         Cd45   2.065       .  S
O42          C53   1.274       .  A
O42         Cd45   2.068       .  S
Zn43         O54   2.014       .  S
Zn43         O56   2.015       .  S
Zn43         O48   1.943       .  S
O44          C55   1.277       .  A
O44         Cd49   2.084       .  S
Cd45         O47   2.084       .  S
Cd45         O48   2.001       .  S
Cd46         O50   2.061       .  S
Cd46         O59   2.064       .  S
Cd46         O48   1.997       .  S
O47          C57   1.276       .  A
O48         Cd49   2.013       .  S
Cd49         O51   2.084       .  S
O50          C57   1.274       .  A
C52         C570   1.479       .  S
C52          O56   1.274       .  A
C53         C541   1.481       .  S
C55         C521   1.477       .  S
C57         C581   1.479       .  S
C58         C501   1.479       .  S
C58          O59   1.275       .  A
C60          C61   1.403       .  A
C60          C65   1.403       .  A
C60         C441   1.480       .  S
C61          C62   1.408       .  A
C61          H66   1.083       .  S
C62          C63   1.408       .  A
C62         C461   1.492       .  S
C63          C64   1.404       .  A
C63          H67   1.083       .  S
C64          C65   1.405       .  A
C64          C87   1.482       .  S
C65          H68   1.084       .  S
C69          C70   1.404       .  A
C69          C74   1.404       .  A
C69         C430   1.482       .  S
C70          C71   1.405       .  A
C70          H75   1.084       .  S
C71          C72   1.406       .  A
C71          C89   1.480       .  S
C72          C73   1.405       .  A
C72          H76   1.083       .  S
C73          C74   1.405       .  A
C73         C590   1.491       .  S
C74          H77   1.083       .  S
C78          C79   1.401       .  A
C78          C83   1.404       .  A
C78         C490   1.481       .  S
C79          C80   1.404       .  A
C79          H84   1.084       .  S
C80          C81   1.408       .  A
C80          C91   1.483       .  S
C81          C82   1.409       .  A
C81          H85   1.083       .  S
C82          C83   1.408       .  A
C82         C401   1.497       .  S
C83          H86   1.083       .  S
C87          C88   1.403       .  A
C87          C92   1.405       .  A
C88          C89   1.403       .  A
C88          H93   1.084       .  S
C89          C90   1.403       .  A
C90          C91   1.406       .  A
C90          H94   1.084       .  S
C91          C92   1.406       .  A
C92          H95   1.084       .  S
O96         C112   1.275       .  A
O96        Zn102   2.026       .  S
C97         C361   1.485       .  S
C97         O113   1.276       .  A
C97         O110   1.278       .  A
O98         C111   1.275       .  A
O98        Cd105   2.071       .  S
O99         C117   1.278       .  A
O99        Cd108   2.094       .  S
O100        C114   1.275       .  A
O100       Cd104   2.060       .  S
O101        C112   1.274       .  A
O101       Cd104   2.068       .  S
Zn102       O113   2.017       .  S
Zn102       O115   2.018       .  S
Zn102       O107   1.946       .  S
O103        C114   1.278       .  A
O103       Cd108   2.089       .  S
Cd104       O106   2.072       .  S
Cd104       O107   1.998       .  S
Cd105       O109   2.069       .  S
Cd105       O118   2.067       .  S
Cd105       O107   1.999       .  S
O106        C116   1.275       .  A
O107       Cd108   2.015       .  S
Cd108       O110   2.089       .  S
O109        C116   1.275       .  A
C111        C470   1.480       .  S
C111        O115   1.274       .  A
C112        C701   1.481       .  S
C114        C421   1.482       .  S
C116        C390   1.481       .  S
C117        C641   1.485       .  S
C117        O118   1.276       .  A
C119        C120   1.404       .  A
C119        C124   1.404       .  A
C119        C370   1.484       .  S
C120        C121   1.407       .  A
C120        H125   1.083       .  S
C121        C122   1.408   1_455  A
C121        C350   1.495       .  S
C122        C123   1.408       .  A
C122        H126   1.083       .  S
C123        C124   1.406   1_655  A
C123        C148   1.485       .  S
C124        H127   1.084       .  S
C128        C129   1.404       .  A
C128        C133   1.405       .  A
C128        C321   1.482       .  S
C129        C130   1.407       .  A
C129        H134   1.083       .  S
C130        C131   1.406       .  A
C130        C561   1.489       .  S
C131        C132   1.403       .  A
C131        H135   1.083       .  S
C132        C133   1.405       .  A
C132        C146   1.481       .  S
C133        H136   1.084       .  S
C137        C138   1.402       .  A
C137        C142   1.404       .  A
C137        C530   1.482       .  S
C138        C139   1.403       .  A
C138        H143   1.084       .  S
C139        C140   1.406       .  A
C139        C150   1.481       .  S
C140        C141   1.409       .  A
C140        H144   1.082       .  S
C141        C142   1.408       .  A
C141        C381   1.494       .  S
C142        H145   1.082       .  S
C146        C147   1.407       .  A
C146        C151   1.404       .  A
C147        C148   1.406       .  A
C147        H152   1.084       .  S
C148        C149   1.405       .  A
C149        C150   1.404       .  A
C149        H153   1.084       .  S
C150        C151   1.403       .  A
C151        H154   1.084       .  S
O155        C171   1.274       .  A
O155       Zn161   2.019       .  S
C156        C690   1.483       .  S
C156        O172   1.275       .  A
C156        O169   1.277       .  A
O157        C170   1.275       .  A
O157       Cd164   2.071       .  S
O158        C176   1.277       .  A
O158       Cd167   2.084       .  S
O159        C173   1.275       .  A
O159       Cd163   2.056       .  S
O160        C171   1.273       .  A
O160       Cd163   2.070       .  S
Zn161       O172   2.014       .  S
Zn161       O174   2.003       .  S
Zn161       O166   1.941       .  S
O162        C173   1.277       .  A
O162       Cd167   2.083       .  S
Cd163       O165   2.080   1_655  S
Cd163       O166   2.000       .  S
Cd164       O168   2.064   1_655  S
Cd164       O177   2.065       .  S
Cd164       O166   1.998       .  S
O165        C175   1.276       .  A
O166       Cd167   2.010       .  S
Cd167       O169   2.083       .  S
O168        C175   1.275       .  A
C170        C310   1.477       .  S
C170        O174   1.273       .  A
C171        C341   1.481       .  S
C173        C281   1.472       .  S
C175        C621   1.479       .  S
C176        C330   1.482       .  S
C176        O177   1.274       .  A
C178        C179   1.400       .  A
C178        C183   1.401   1_655  A
C178        C290   1.477       .  S
C179        C180   1.403       .  A
C179        H184   1.084       .  S
C180        C181   1.409   1_655  A
C180        C209   1.482       .  S
C181        C182   1.411       .  A
C181        H185   1.083       .  S
C182        C183   1.406       .  A
C182        C261   1.496       .  S
C183        H186   1.083       .  S
C187        C188   1.405       .  A
C187        C192   1.404       .  A
C187        C250   1.483       .  S
C188        C189   1.408       .  A
C188        H193   1.084       .  S
C189        C190   1.407       .  A
C189        C207   1.485       .  S
C190        C191   1.406       .  A
C190        H194   1.083       .  S
C191        C192   1.405       .  A
C191        C550   1.492       .  S
C192        H195   1.083       .  S
C196        C197   1.403       .  A
C196        C201   1.402       .  A
C196        C510   1.480   1_554  S
C197        C198   1.404       .  A
C197        H202   1.084       .  S
C198        C199   1.403       .  A
C198        C205   1.479       .  S
C199        C200   1.407       .  A
C199        H203   1.083       .  S
C200        C201   1.407       .  A
C200        C301   1.491       .  S
C201        H204   1.083       .  S
C205        C206   1.406       .  A
C205        C210   1.403       .  A
C206        C207   1.405       .  A
C206        H211   1.084       .  S
C207        C208   1.407       .  A
C208        C209   1.405       .  A
C208        H212   1.084       .  S
C209        C210   1.403       .  A
C210        H213   1.084       .  S
O214        C230   1.276       .  A
O214       Zn220   2.028       .  S
C215        C610   1.480       .  S
C215        O231   1.276       .  A
C215        O228   1.276       .  A
O216        C229   1.274       .  A
O216       Cd223   2.070       .  S
O217        C235   1.277       .  A
O217       Cd226   2.087       .  S
O218        C232   1.276       .  A
O218       Cd222   2.071       .  S
O219        C230   1.275       .  A
O219       Cd222   2.074       .  S
Zn220       O231   2.019       .  S
Zn220       O233   2.039       .  S
Zn220       O225   1.948       .  S
O221        C232   1.277       .  A
O221       Cd226   2.085       .  S
Cd222       O224   2.080       .  S
Cd222       O225   2.002       .  S
Cd223       O227   2.065       .  S
Cd223       O236   2.064       .  S
Cd223       O225   1.994       .  S
O224        C234   1.276       .  A
O225       Cd226   2.012       .  S
Cd226       O228   2.078       .  S
O227        C234   1.275       .  A
C229        C410   1.486       .  S
C229        O233   1.277       .  A
C230        C270   1.484       .  S
C232        C450   1.482       .  S
C234        C670   1.482       .  S
C235        C241   1.484       .  S
C235        O236   1.275       .  A
C237        C238   1.409       .  A
C237        C242   1.404       .  A
C237        H247   1.082       .  S
C238        C239   1.407       .  A
C238        C243   1.494       .  S
C239        C240   1.395       .  A
C239        H244   1.082       .  S
C240        C241   1.404       .  A
C240        H245   1.083       .  S
C241        C242   1.407       .  A
C242        H246   1.083       .  S
C243        C248   1.410       .  A
C243        C252   1.407       .  A
C248        C249   1.404       .  A
C248        H253   1.082       .  S
C249        C250   1.405       .  A
C249        H254   1.083       .  S
C250        C251   1.402       .  A
C251        C252   1.394       .  A
C251        H255   1.083       .  S
C252        H256   1.082       .  S
C257        C258   1.404       .  A
C257        C262   1.402       .  A
C257        H267   1.083       .  S
C258        C259   1.401       .  A
C258        C263   1.482       .  S
C259        C260   1.396       .  A
C259        H264   1.083       .  S
C260        C261   1.410       .  A
C260        H265   1.082       .  S
C261        C262   1.409       .  A
C262        H266   1.082       .  S
C263        C268   1.403       .  A
C263        C272   1.404       .  A
C268        C269   1.400       .  A
C268        H273   1.083       .  S
C269        C270   1.407       .  A
C269        H274   1.083       .  S
C270        C271   1.407       .  A
C271        C272   1.399       .  A
C271        H275   1.083       .  S
C272        H276   1.083       .  S
C277        C278   1.403       .  A
C277        C282   1.393       .  A
C277        H287   1.083       .  S
C278        C279   1.406       .  A
C278        C283   1.479       .  S
C279        C280   1.401       .  A
C279        H284   1.083       .  S
C280        C281   1.404       .  A
C280        H285   1.083       .  S
C281        C282   1.403       .  A
C282        H286   1.083       .  S
C283        C288   1.406   1_545  A
C283        C292   1.404   1_545  A
C288        C289   1.397       .  A
C288        H293   1.083       .  S
C289        C290   1.402       .  A
C289        H294   1.083       .  S
C290        C291   1.405       .  A
C291        C292   1.397       .  A
C291        H295   1.083   1_655  S
C292        H296   1.083   1_565  S
C297        C298   1.401       .  A
C297        C302   1.398       .  A
C297        H307   1.083       .  S
C298        C299   1.401       .  A
C298        C303   1.474       .  S
C299        C300   1.395       .  A
C299        H304   1.083       .  S
C300        C301   1.409       .  A
C300        H305   1.082       .  S
C301        C302   1.410       .  A
C302        H306   1.082       .  S
C303        C308   1.403       .  A
C303        C312   1.401       .  A
C308        C309   1.399       .  A
C308        H313   1.083       .  S
C309        C310   1.406       .  A
C309        H314   1.083       .  S
C310        C311   1.406       .  A
C311        C312   1.394       .  A
C311        H315   1.083       .  S
C312        H316   1.083       .  S
C317        C318   1.404       .  A
C317        C322   1.400       .  A
C317        H327   1.083       .  S
C318        C319   1.404       .  A
C318        C323   1.479       .  S
C319        C320   1.399       .  A
C319        H324   1.083       .  S
C320        C321   1.404       .  A
C320        H325   1.083       .  S
C321        C322   1.406       .  A
C322        H326   1.083       .  S
C323        C328   1.404       .  A
C323        C332   1.403       .  A
C328        C329   1.401       .  A
C328        H333   1.083       .  S
C329        C330   1.407       .  A
C329        H334   1.083       .  S
C330        C331   1.406       .  A
C331        C332   1.397       .  A
C331        H335   1.083       .  S
C332        H336   1.083       .  S
C337        C338   1.409       .  A
C337        C342   1.399       .  A
C337        H347   1.082       .  S
C338        C339   1.408       .  A
C338        C343   1.493       .  S
C339        C340   1.398       .  A
C339        H344   1.082       .  S
C340        C341   1.404   1_556  A
C340        H345   1.083       .  S
C341        C342   1.404   1_554  A
C342        H346   1.083   1_556  S
C343        C348   1.406   1_655  A
C343        C352   1.408       .  A
C348        C349   1.397       .  A
C348        H353   1.082       .  S
C349        C350   1.408       .  A
C349        H354   1.082       .  S
C350        C351   1.408   1_455  A
C351        C352   1.400       .  A
C351        H355   1.082       .  S
C352        H356   1.082       .  S
C357        C358   1.409       .  A
C357        C362   1.402       .  A
C357        H367   1.082       .  S
C358        C359   1.408       .  A
C358        C363   1.495       .  S
C359        C360   1.397       .  A
C359        H364   1.082       .  S
C360        C361   1.405       .  A
C360        H365   1.083       .  S
C361        C362   1.406       .  A
C362        H366   1.083       .  S
C363        C368   1.410       .  A
C363        C372   1.408       .  A
C368        C369   1.403       .  A
C368        H373   1.082       .  S
C369        C370   1.404       .  A
C369        H374   1.083       .  S
C370        C371   1.403       .  A
C371        C372   1.396       .  A
C371        H375   1.083       .  S
C372        H376   1.082       .  S
C377        C378   1.407       .  A
C377        C382   1.399       .  A
C377        H387   1.082       .  S
C378        C379   1.407       .  A
C378        C383   1.492       .  S
C379        C380   1.397       .  A
C379        H384   1.082       .  S
C380        C381   1.408       .  A
C380        H385   1.082       .  S
C381        C382   1.408       .  A
C382        H386   1.082       .  S
C383        C388   1.408       .  A
C383        C392   1.408       .  A
C388        C389   1.399       .  A
C388        H393   1.082       .  S
C389        C390   1.405       .  A
C389        H394   1.083       .  S
C390        C391   1.405       .  A
C391        C392   1.397       .  A
C391        H395   1.083       .  S
C392        H396   1.082       .  S
C397        C398   1.403       .  A
C397        C402   1.398       .  A
C397        H407   1.083       .  S
C398        C399   1.405       .  A
C398        C403   1.485       .  S
C399        C400   1.402       .  A
C399        H404   1.083       .  S
C400        C401   1.410       .  A
C400        H405   1.082       .  S
C401        C402   1.409       .  A
C402        H406   1.082       .  S
C403        C408   1.405       .  A
C403        C412   1.404       .  A
C408        C409   1.400       .  A
C408        H413   1.083       .  S
C409        C410   1.406       .  A
C409        H414   1.083       .  S
C410        C411   1.408       .  A
C411        C412   1.401       .  A
C411        H415   1.083       .  S
C412        H416   1.083       .  S
C417        C418   1.408       .  A
C417        C422   1.403       .  A
C417        H427   1.082       .  S
C418        C419   1.406       .  A
C418        C423   1.491       .  S
C419        C420   1.394       .  A
C419        H424   1.083       .  S
C420        C421   1.404       .  A
C420        H425   1.083       .  S
C421        C422   1.406       .  A
C422        H426   1.083       .  S
C423        C428   1.409       .  A
C423        C432   1.407       .  A
C428        C429   1.403       .  A
C428        H433   1.082       .  S
C429        C430   1.404       .  A
C429        H434   1.083       .  S
C430        C431   1.403       .  A
C431        C432   1.393       .  A
C431        H435   1.083       .  S
C432        H436   1.082       .  S
C437        C438   1.404       .  A
C437        C442   1.398       .  A
C437        H447   1.083       .  S
C438        C439   1.404       .  A
C438        C443   1.479       .  S
C439        C440   1.400       .  A
C439        H444   1.083       .  S
C440        C441   1.405       .  A
C440        H445   1.083       .  S
C441        C442   1.403       .  A
C442        H446   1.083       .  S
C443        C448   1.402       .  A
C443        C452   1.404       .  A
C448        C449   1.397   1_556  A
C448        H453   1.083       .  S
C449        C450   1.406       .  A
C449        H454   1.083       .  S
C450        C451   1.407       .  A
C451        C452   1.402   1_554  A
C451        H455   1.083       .  S
C452        H456   1.083       .  S
C457        C458   1.407       .  A
C457        C462   1.398       .  A
C457        H467   1.082       .  S
C458        C459   1.407       .  A
C458        C463   1.492   1_565  S
C459        C460   1.398       .  A
C459        H464   1.082       .  S
C460        C461   1.407       .  A
C460        H465   1.082       .  S
C461        C462   1.407       .  A
C462        H466   1.082       .  S
C463        C468   1.409       .  A
C463        C472   1.407       .  A
C468        C469   1.399       .  A
C468        H473   1.082       .  S
C469        C470   1.405       .  A
C469        H474   1.083       .  S
C470        C471   1.404       .  A
C471        C472   1.397       .  A
C471        H475   1.083       .  S
C472        H476   1.082       .  S
C477        C478   1.408       .  A
C477        C482   1.403       .  A
C477        H487   1.083       .  S
C478        C479   1.406       .  A
C478        C483   1.491       .  S
C479        C480   1.394       .  A
C479        H484   1.083       .  S
C480        C481   1.404       .  A
C480        H485   1.083       .  S
C481        C482   1.407       .  A
C482        H486   1.083       .  S
C483        C488   1.408       .  A
C483        C492   1.407       .  A
C488        C489   1.402       .  A
C488        H493   1.082       .  S
C489        C490   1.405       .  A
C489        H494   1.083       .  S
C490        C491   1.401       .  A
C491        C492   1.395       .  A
C491        H495   1.083       .  S
C492        H496   1.082       .  S
C497        C498   1.403       .  A
C497        C502   1.396       .  A
C497        H507   1.083       .  S
C498        C499   1.405       .  A
C498        C503   1.479       .  S
C499        C500   1.401       .  A
C499        H504   1.083       .  S
C500        C501   1.406       .  A
C500        H505   1.083       .  S
C501        C502   1.406       .  A
C502        H506   1.083       .  S
C503        C508   1.405       .  A
C503        C512   1.403       .  A
C508        C509   1.399       .  A
C508        H513   1.083       .  S
C509        C510   1.403       .  A
C509        H514   1.083       .  S
C510        C511   1.405       .  A
C511        C512   1.398       .  A
C511        H515   1.083       .  S
C512        H516   1.083       .  S
C517        C518   1.402       .  A
C517        C522   1.395       .  A
C517        H527   1.083       .  S
C518        C519   1.404       .  A
C518        C523   1.476   1_565  S
C519        C520   1.401       .  A
C519        H524   1.083       .  S
C520        C521   1.406       .  A
C520        H525   1.083       .  S
C521        C522   1.405       .  A
C522        H526   1.083       .  S
C523        C528   1.403       .  A
C523        C532   1.403       .  A
C528        C529   1.397       .  A
C528        H533   1.083       .  S
C529        C530   1.405       .  A
C529        H534   1.083       .  S
C530        C531   1.406       .  A
C531        C532   1.399       .  A
C531        H535   1.083       .  S
C532        H536   1.083       .  S
C537        C538   1.408       .  A
C537        C542   1.398       .  A
C537        H547   1.082       .  S
C538        C539   1.408       .  A
C538        C543   1.494       .  S
C539        C540   1.400       .  A
C539        H544   1.082       .  S
C540        C541   1.404       .  A
C540        H545   1.083       .  S
C541        C542   1.404       .  A
C542        H546   1.083       .  S
C543        C548   1.407       .  A
C543        C552   1.408       .  A
C548        C549   1.397       .  A
C548        H553   1.082       .  S
C549        C550   1.407       .  A
C549        H554   1.083       .  S
C550        C551   1.406       .  A
C551        C552   1.400       .  A
C551        H555   1.082       .  S
C552        H556   1.082       .  S
C557        C558   1.407       .  A
C557        C562   1.398       .  A
C557        H567   1.082       .  S
C558        C559   1.407       .  A
C558        C563   1.490       .  S
C559        C560   1.397       .  A
C559        H564   1.082       .  S
C560        C561   1.405       .  A
C560        H565   1.082       .  S
C561        C562   1.407       .  A
C562        H566   1.082       .  S
C563        C568   1.408       .  A
C563        C572   1.407       .  A
C568        C569   1.398       .  A
C568        H573   1.082       .  S
C569        C570   1.404       .  A
C569        H574   1.083       .  S
C570        C571   1.404       .  A
C571        C572   1.397       .  A
C571        H575   1.083       .  S
C572        H576   1.082       .  S
C577        C578   1.409       .  A
C577        C582   1.400       .  A
C577        H587   1.082       .  S
C578        C579   1.408       .  A
C578        C583   1.493       .  S
C579        C580   1.397       .  A
C579        H584   1.082       .  S
C580        C581   1.404       .  A
C580        H585   1.083       .  S
C581        C582   1.404       .  A
C582        H586   1.083       .  S
C583        C588   1.407       .  A
C583        C592   1.407       .  A
C588        C589   1.399       .  A
C588        H593   1.082       .  S
C589        C590   1.407       .  A
C589        H594   1.082       .  S
C590        C591   1.406       .  A
C591        C592   1.396       .  A
C591        H595   1.082       .  S
C592        H596   1.082       .  S
C597        C598   1.407       .  A
C597        C602   1.394       .  A
C597        H607   1.082       .  S
C598        C599   1.409       .  A
C598        C603   1.491       .  S
C599        C600   1.402       .  A
C599        H604   1.082       .  S
C600        C601   1.405       .  A
C600        H605   1.083       .  S
C601        C602   1.403       .  A
C602        H606   1.083       .  S
C603        C608   1.408       .  A
C603        C612   1.408       .  A
C608        C609   1.396       .  A
C608        H613   1.082       .  S
C609        C610   1.403       .  A
C609        H614   1.083       .  S
C610        C611   1.405       .  A
C611        C612   1.401       .  A
C611        H615   1.083       .  S
C612        H616   1.082       .  S
C617        C618   1.407       .  A
C617        C622   1.396       .  A
C617        H627   1.082       .  S
C618        C619   1.409       .  A
C618        C623   1.492       .  S
C619        C620   1.400       .  A
C619        H624   1.082       .  S
C620        C621   1.405       .  A
C620        H625   1.083       .  S
C621        C622   1.403       .  A
C622        H626   1.083       .  S
C623        C628   1.407       .  A
C623        C632   1.407       .  A
C628        C629   1.395       .  A
C628        H633   1.082       .  S
C629        C630   1.406       .  A
C629        H634   1.082       .  S
C630        C631   1.408       .  A
C631        C632   1.400       .  A
C631        H635   1.082       .  S
C632        H636   1.082       .  S
C637        C638   1.409       .  A
C637        C642   1.404       .  A
C637        H647   1.082       .  S
C638        C639   1.407       .  A
C638        C643   1.495       .  S
C639        C640   1.396       .  A
C639        H644   1.082       .  S
C640        C641   1.404       .  A
C640        H645   1.083       .  S
C641        C642   1.406       .  A
C642        H646   1.083       .  S
C643        C648   1.409       .  A
C643        C652   1.408       .  A
C648        C649   1.404       .  A
C648        H653   1.082       .  S
C649        C650   1.405       .  A
C649        H654   1.083       .  S
C650        C651   1.403       .  A
C651        C652   1.396       .  A
C651        H655   1.083       .  S
C652        H656   1.082       .  S
C657        C658   1.403       .  A
C657        C662   1.401       .  A
C657        H667   1.083       .  S
C658        C659   1.402       .  A
C658        C663   1.479   1_545  S
C659        C660   1.395       .  A
C659        H664   1.083       .  S
C660        C661   1.408       .  A
C660        H665   1.082       .  S
C661        C662   1.410       .  A
C662        H666   1.082       .  S
C663        C668   1.404       .  A
C663        C672   1.402       .  A
C668        C669   1.401       .  A
C668        H673   1.083   1_565  S
C669        C670   1.407       .  A
C669        H674   1.083       .  S
C670        C671   1.406       .  A
C671        C672   1.395       .  A
C671        H675   1.083       .  S
C672        H676   1.083       .  S
C677        C678   1.408       .  A
C677        C682   1.396       .  A
C677        H687   1.082       .  S
C678        C679   1.409       .  A
C678        C683   1.492       .  S
C679        C680   1.401       .  A
C679        H684   1.082       .  S
C680        C681   1.403       .  A
C680        H685   1.083       .  S
C681        C682   1.403       .  A
C682        H686   1.083       .  S
C683        C688   1.407       .  A
C683        C692   1.408       .  A
C688        C689   1.397       .  A
C688        H693   1.082       .  S
C689        C690   1.405       .  A
C689        H694   1.083       .  S
C690        C691   1.406       .  A
C691        C692   1.401       .  A
C691        H695   1.083       .  S
C692        H696   1.082       .  S
C697        C698   1.408       .  A
C697        C702   1.398       .  A
C697        H707   1.082       .  S
C698        C699   1.409       .  A
C698        C703   1.494       .  S
C699        C700   1.399       .  A
C699        H704   1.082       .  S
C700        C701   1.405       .  A
C700        H705   1.083       .  S
C701        C702   1.404       .  A
C702        H706   1.083       .  S
C703        C708   1.407       .  A
C703        C712   1.408       .  A
C708        C709   1.397       .  A
C708        H713   1.082       .  S
C709        C710   1.407   1_556  A
C709        H714   1.082       .  S
C710        C711   1.407   1_554  A
C711        C712   1.400       .  A
C711        H715   1.082   1_556  S
C712        H716   1.082       .  S
