geometry optimzed in LAMMPS
_audit_creation_date              2020-11-30 
_audit_creation_method            'lammps2cif' 
_symmetry_space_group_name_H-M    'P1' 
_symmetry_Int_Tables_number       1 
_symmetry_cell_setting            triclinic 
loop_ 
_symmetry_equiv_pos_as_xyz 
  x,y,z 
_cell_length_a                    18.53459449 
_cell_length_b                    50.26822088438306 
_cell_length_c                    28.229522265545686 
_cell_angle_alpha                 92.90788391881614 
_cell_angle_beta                  85.18783809606249 
_cell_angle_gamma                 91.48750055652073 
loop_ 
_atom_site_label 
_atom_site_type_symbol 
_atom_site_fract_x 
_atom_site_fract_y 
_atom_site_fract_z 
_atom_site_charge 
N1          N  0.38353663  0.24587886  0.37811015    -0.03200
C2          C  0.45433326  0.25109018  0.38636042    -0.00600
C3          C  0.48250194  0.27019691  0.35550770    -0.23500
C4          C  0.43095487  0.27455409  0.32483125    -0.23700
C5          C  0.37102006  0.25926348  0.33889098    -0.00700
H6          H  0.53861357  0.27667155  0.34999806     0.13000
H7          H  0.43894983  0.28565884  0.29286442     0.13100
N8          N  0.57646075  0.23405293  0.38956839    -0.03200
C9          C  0.50376761  0.22966050  0.39865584    -0.00600
C10         C  0.48684031  0.20526814  0.37609776    -0.23500
C11         C  0.54333943  0.19967999  0.34255313    -0.23700
C12         C  0.59597461  0.21896401  0.34980251    -0.00700
H13         H  0.43278959  0.19692807  0.37337600     0.13000
H14         H  0.54060895  0.18611419  0.31169872     0.13100
N15         N  0.06558221  0.24694792  0.09640159    -0.03200
C16         C  0.99398775  0.24374520  0.08866277    -0.00600
C17         C  0.96289631  0.22487401  0.11899477    -0.23500
C18         C  0.01369665  0.21896398  0.14928262    -0.23700
C19         C  0.07602273  0.23299035  0.13534329    -0.00700
H20         H  0.90581535  0.21982372  0.12488200     0.13000
H21         H  0.00371051  0.20793037  0.18122236     0.13100
N22         N  0.87547332  0.26431602  0.08835306    -0.03200
C23         C  0.94862765  0.26693172  0.07901603    -0.00600
C24         C  0.97032000  0.29035907  0.10285555    -0.23500
C25         C  0.91479418  0.29705896  0.13648228    -0.23700
C26         C  0.85857308  0.27932628  0.12863022    -0.00700
H27         H  0.02579368  0.29708804  0.10594150     0.13000
H28         H  0.92014257  0.30998794  0.16789879     0.13100
N29         N  0.18542957  0.12626511  0.03885725    -0.27000
N30         N  0.22571414  0.13465924  0.07326359    -0.34900
C31         C  0.24928702  0.15968761  0.06594585     0.01300
C32         C  0.22225542  0.16770242  0.02501695     0.07300
C33         C  0.18119383  0.14615367  0.00891027    -0.05800
H34         H  0.28164206  0.17150621  0.08971202     0.08000
H35         H  0.15021265  0.14510002  0.47801598     0.09200
Cu36       Cu  0.24530357  0.11224909  0.12953695     0.44200
Cu37       Cu  0.14384784  0.08729220  0.03522058     0.42000
Cu38       Cu  0.21233842  0.04278015  0.12395059     0.43900
N39         N  0.27622250  0.08795992  0.18027775    -0.34400
N40         N  0.26787780  0.06177751  0.17821389    -0.28700
C41         C  0.30303503  0.05184991  0.21333245    -0.04800
C42         C  0.33449241  0.07307017  0.23834216     0.07400
C43         C  0.31569240  0.09551405  0.21642460     0.01200
H44         H  0.30763965  0.03085984  0.21904943     0.08900
H45         H  0.33302912  0.11585655  0.22441515     0.08000
N46         N  0.15459806  0.03016299  0.06585312    -0.35900
N47         N  0.12880421  0.04595625  0.03533934    -0.28100
C48         C  0.10153662  0.03075028  0.50014704    -0.03300
C49         C  0.11101297  0.00427810  0.50840587     0.05300
C50         C  0.14443635  0.00463843  0.05043420     0.03400
H51         H  0.08088066  0.03841709  0.46898655     0.08500
H52         H  0.16606843  0.98772747  0.06621440     0.07300
O53         O  0.10508988  0.24453610  0.01490739    -0.72700
O54         O  0.26290096  0.23621173  0.40739936    -0.73700
O55         O  0.18817080  0.20139659  0.47543602    -0.62300
O56         O  0.17911483  0.27839806  0.44655006    -0.70700
O57         O  0.26123377  0.28919973  0.99756913    -0.70300
O58         O  0.26903416  0.21202539  0.02741321    -0.61500
O59         O  0.34405956  0.24602685  0.45936982    -0.74000
O60         O  0.18660441  0.25487845  0.06640402    -0.72800
Cu61       Cu  0.18091339  0.23974062  0.45938680     1.04600
Cu62       Cu  0.26810528  0.25086494  0.01442599     1.04300
C63         C  0.12093552  0.24979567  0.05776861     0.93500
C64         C  0.32842179  0.24150588  0.41633222     0.92600
C65         C  0.22765805  0.19481886  0.00772725     0.84800
C66         C  0.22119508  0.29561644  0.46542783     0.91100
N67         N  0.26498181  0.36327882  0.43001459    -0.27000
N68         N  0.22032596  0.35501158  0.39804629    -0.34900
C69         C  0.19568923  0.33034315  0.40736055     0.01300
C70         C  0.22652617  0.32248194  0.44710902     0.07300
C71         C  0.27109708  0.34367407  0.46026392    -0.05800
H72         H  0.16013846  0.31859586  0.38559827     0.08000
H73         H  0.30583911  0.34464178  0.98924152     0.09200
Cu74       Cu  0.19836359  0.37694736  0.34160042     0.44200
Cu75       Cu  0.30985767  0.40171302  0.43005004     0.42000
Cu76       Cu  0.25725507  0.44468096  0.33415281     0.43900
N77         N  0.17347491  0.40049811  0.28801544    -0.34400
N78         N  0.19226906  0.42592311  0.28510931    -0.28700
C79         C  0.15954086  0.43589426  0.24903899    -0.04800
C80         C  0.11894873  0.41548016  0.22848378     0.07400
C81         C  0.12965907  0.39342668  0.25396924     0.01200
H82         H  0.16322958  0.45649575  0.23952553     0.08900
H83         H  0.10435742  0.37389966  0.24970617     0.08000
N84         N  0.31288997  0.45777147  0.39255265    -0.35900
N85         N  0.33023847  0.44262597  0.42682541    -0.28100
C86         C  0.35480394  0.45839944  0.46219274    -0.03300
C87         C  0.35317434  0.48456391  0.44974363     0.05300
C88         C  0.32703448  0.48344613  0.40521118     0.03400
H89         H  0.36881995  0.45146817  0.99578057     0.08500
H90         H  0.31293305  0.50018805  0.38544939     0.07300
O91         O  0.75563114  0.25985752  0.06529879    -0.72700
O92         O  0.60540027  0.24413214  0.46929775    -0.73700
O93         O  0.68807783  0.21330621  0.02923737    -0.62300
O94         O  0.67376007  0.29076254  0.00656605    -0.70700
O95         O  0.76304806  0.28597527  0.44936120    -0.70300
O96         O  0.77670216  0.20853047  0.47154782    -0.61500
O97         O  0.69560100  0.23950463  0.41315282    -0.74000
O98         O  0.84537598  0.25480642  0.00891950    -0.72800
Cu99       Cu  0.67763800  0.25211563  0.01963693     1.04600
Cu100      Cu  0.77320664  0.24714161  0.45875212     1.04300
C101        C  0.82375097  0.25915674  0.05285661     0.93500
C102        C  0.62742834  0.23978199  0.42539464     0.92600
C103        C  0.73602531  0.19906931  0.00558371     0.84800
C104        C  0.71475932  0.30021362  0.47267234     0.91100
N105        N  0.78829298  0.13162352  0.02578012    -0.27000
N106        N  0.75865666  0.13962310  0.06803355    -0.34900
C107        C  0.73276836  0.16409793  0.06615912     0.01300
C108        C  0.74780731  0.17228142  0.02058195     0.07300
C109        C  0.78410510  0.15146413  0.99578931    -0.05800
H110        H  0.70707036  0.17541858  0.09628803     0.08000
H111        H  0.80560587  0.15082792  0.45895848     0.09200
Cu112      Cu  0.75359715  0.11733674  0.12641610     0.44200
Cu113      Cu  0.82541835  0.09299717  0.01372814     0.42000
Cu114      Cu  0.77784594  0.04806998  0.11448195     0.43900
N115        N  0.71887392  0.09253566  0.17861547    -0.34400
N116        N  0.72306208  0.06635601  0.17424719    -0.28700
C117        C  0.67958829  0.05580116  0.20953995    -0.04800
C118        C  0.64679819  0.07664638  0.23666306     0.07400
C119        C  0.67366623  0.09952060  0.21629325     0.01200
H120        H  0.66858509  0.03471063  0.21299784     0.08900
H121        H  0.65645074  0.11968222  0.22537516     0.08000
N122        N  0.82463558  0.03619041  0.04734380    -0.35900
N123        N  0.84045465  0.05202524  0.01159762    -0.28100
C124        C  0.85826520  0.03691614  0.47185149    -0.03300
C125        C  0.85334105  0.01048447  0.48284093     0.05300
C126        C  0.83278483  0.01073130  0.03109714     0.03400
H127        H  0.86927851  0.04450891  0.43689670     0.08500
H128        H  0.81771034  0.99363805  0.05183864     0.07300
N129        N  0.66710731  0.36829272  0.45209253    -0.27000
N130        N  0.69877585  0.36026548  0.41043525    -0.34900
C131        C  0.72224907  0.33545997  0.41244740     0.01300
C132        C  0.70352201  0.32703301  0.45746514     0.07300
C133        C  0.66714459  0.34802814  0.48169290    -0.05800
H134        H  0.74944962  0.32418657  0.38281486     0.08000
H135        H  0.64371344  0.34859851  0.01808513     0.09200
Cu136      Cu  0.70942746  0.38278401  0.35243864     0.44200
Cu137      Cu  0.63619743  0.40783862  0.46408905     0.42000
Cu138      Cu  0.69388102  0.45189330  0.36194197     0.43900
N139        N  0.74269240  0.40604039  0.29777370    -0.34400
N140        N  0.74213870  0.43229537  0.30087894    -0.28700
C141        C  0.78320834  0.44150668  0.26314391    -0.04800
C142        C  0.81035824  0.41966573  0.23571908     0.07400
C143        C  0.78279021  0.39766342  0.25859864     0.01200
H144        H  0.79655299  0.46230231  0.25800009     0.08900
H145        H  0.79650478  0.37708430  0.24999798     0.08000
N146        N  0.65008356  0.46469137  0.42966422    -0.35900
N147        N  0.63034742  0.44934983  0.46561213    -0.28100
C148        C  0.61461463  0.46504535  0.50502774    -0.03300
C149        C  0.62475473  0.49131855  0.49355287     0.05300
C150        C  0.64668959  0.49035473  0.44552079     0.03400
H151        H  0.60094465  0.45787265  0.04013051     0.08500
H152        H  0.66558111  0.50695640  0.42462294     0.07300
O153        O  0.39830625  0.09897677  0.39228444    -0.72700
O154        O  0.56007555  0.09779920  0.29059036    -0.73700
O155        O  0.40758758  0.09574079  0.29246832    -0.62300
O156        O  0.55092519  0.10164450  0.38961326    -0.70700
O157        O  0.55677158  0.05756590  0.38910350    -0.70300
O158        O  0.40717987  0.05156755  0.29144376    -0.61500
O159        O  0.56219483  0.05359844  0.28902624    -0.74000
O160        O  0.39970061  0.05482512  0.39274267    -0.72800
Cu161      Cu  0.47897699  0.09995067  0.34151756     1.04600
Cu162      Cu  0.48131037  0.05273845  0.34107485     1.04300
C163        C  0.37088841  0.07699914  0.40673249     0.93500
C164        C  0.58710987  0.07580106  0.27394903     0.92600
C165        C  0.38493408  0.07319160  0.27611376     0.84800
C166        C  0.58075565  0.08076587  0.40174161     0.91100
N167        N  0.12689897  0.13036647  0.29377877    -0.27000
N168        N  0.12411818  0.14122822  0.33754733    -0.34900
C169        C  0.13762143  0.16759923  0.33563799     0.01300
C170        C  0.15088102  0.17358840  0.28844306     0.07300
C171        C  0.14391958  0.14954251  0.26281630    -0.05800
H172        H  0.14398466  0.18095792  0.36637105     0.08000
H173        H  0.15277193  0.14611059  0.22464432     0.09200
Cu174      Cu  0.12645150  0.11878333  0.39676862     0.44200
Cu175      Cu  0.11258184  0.08946953  0.27931498     0.42000
Cu176      Cu  0.11217857  0.04826953  0.38049923     0.43900
N177        N  0.18923800  0.09311578  0.42977088    -0.34400
N178        N  0.18422800  0.06696303  0.42355157    -0.28700
C179        C  0.24942224  0.05658781  0.42723201    -0.04800
C180        C  0.29917502  0.07724075  0.43305751     0.07400
C181        C  0.25794422  0.09994266  0.43726397     0.01200
H182        H  0.26283024  0.03661505  0.41379402     0.08900
H183        H  0.27934987  0.12001121  0.43314948     0.08000
N184        N  0.08966255  0.03350571  0.31378080    -0.35900
N185        N  0.09335314  0.04828911  0.27616306    -0.28100
C186        C  0.08829371  0.03218411  0.23699294    -0.03300
C187        C  0.08151322  0.00609065  0.25070997     0.05300
C188        C  0.08235087  0.00769292  0.29963212     0.03400
H189        H  0.09234644  0.03890769  0.20104851     0.08500
H190        H  0.08228414  0.99126089  0.32292748     0.07300
N191        N  0.32578839  0.36038589  0.17763685    -0.27000
N192        N  0.32700947  0.34860612  0.13456673    -0.34900
C193        C  0.31064248  0.32255583  0.13818904     0.01300
C194        C  0.29681438  0.31758487  0.18570316     0.07300
C195        C  0.30668050  0.34198337  0.20990755    -0.05800
H196        H  0.30313002  0.30873089  0.10825462     0.08000
H197        H  0.29916834  0.34612878  0.24796441     0.09200
Cu198      Cu  0.32554516  0.36905764  0.07313530     0.44200
Cu199      Cu  0.34726529  0.40146521  0.18874796     0.42000
Cu200      Cu  0.34307870  0.43828414  0.08111861     0.43900
N201        N  0.26082415  0.39317163  0.03852750    -0.34400
N202        N  0.26753055  0.41935514  0.04126859    -0.28700
C203        C  0.20261550  0.42993808  0.03749040    -0.04800
C204        C  0.15145131  0.40945349  0.03496704     0.07400
C205        C  0.19128576  0.38646497  0.03334071     0.01200
H206        H  0.19079682  0.45040902  0.04857721     0.08900
H207        H  0.16902418  0.36679264  0.04032008     0.08000
N208        N  0.37698681  0.45475657  0.14383457    -0.33900
N209        N  0.37530035  0.44217385  0.18400223    -0.28100
C210        C  0.38898564  0.46016297  0.21941449    -0.03300
C211        C  0.39897756  0.48507839  0.20037330     0.05300
C212        C  0.39135251  0.48077590  0.15245509     0.03400
H213        H  0.38800698  0.45568808  0.25655100     0.08500
H214        H  0.39134262  0.49571711  0.12620702     0.07300
O215        O  0.11330421  0.25097105  0.20946403    -0.72700
O216        O  0.25022511  0.26093365  0.31447433    -0.73700
O217        O  0.21806421  0.29148706  0.23718190    -0.62300
O218        O  0.14730392  0.22081589  0.28759417    -0.70700
O219        O  0.22897727  0.20006657  0.23781337    -0.70300
O220        O  0.29950823  0.27049573  0.18760333    -0.61500
O221        O  0.33336579  0.24045415  0.26554591    -0.74000
O222        O  0.19642884  0.23053538  0.16048593    -0.72800
Cu223      Cu  0.17906320  0.25676633  0.26368987     1.04600
Cu224      Cu  0.26765174  0.23465675  0.21138626     1.04300
C225        C  0.13209540  0.23900377  0.16925533     0.93500
C226        C  0.31462116  0.25255699  0.30562177     0.92600
C227        C  0.27045610  0.29205829  0.20472921     0.84800
C228        C  0.17675380  0.19934651  0.27032028     0.91100
O229        O  0.63332526  0.22228133  0.26719876    -0.72700
O230        O  0.76305417  0.25082540  0.15940736    -0.73700
O231        O  0.76440465  0.20622523  0.21918808    -0.62300
O232        O  0.63208710  0.26741757  0.20611481    -0.70700
O233        O  0.68939662  0.29235331  0.25894127    -0.70300
O234        O  0.82112638  0.23098014  0.27254733    -0.61500
O235        O  0.82081535  0.27615763  0.21126260    -0.74000
O236        O  0.69036902  0.24792273  0.31899125    -0.72800
Cu237      Cu  0.69601172  0.23586229  0.21124283     1.04600
Cu238      Cu  0.75769130  0.26270684  0.26715956     1.04300
C239        C  0.64299655  0.22987475  0.31020245     0.93500
C240        C  0.81092161  0.26868739  0.16823087     0.92600
C241        C  0.81055779  0.20855308  0.25035451     0.84800
C242        C  0.64257682  0.28986605  0.22820203     0.91100
N243        N  0.86189066  0.14108077  0.27097623    -0.27000
N244        N  0.85367381  0.15191304  0.31475063    -0.34900
C245        C  0.84407027  0.17822439  0.31274275     0.01300
C246        C  0.84434200  0.18449521  0.26558770     0.07300
C247        C  0.85529701  0.16035171  0.24002250    -0.05800
H248        H  0.82717746  0.19109872  0.34334726     0.08000
H249        H  0.85267270  0.15671952  0.20208942     0.09200
Cu250      Cu  0.82638585  0.13011622  0.37443031     0.44200
Cu251      Cu  0.87316334  0.09979453  0.25698783     0.42000
Cu252      Cu  0.85208144  0.06242814  0.36429769     0.43900
N253        N  0.75887362  0.10389183  0.41278754    -0.34400
N254        N  0.76846756  0.07798667  0.40844238    -0.28700
C255        C  0.70410745  0.06524804  0.41564486    -0.04800
C256        C  0.65046790  0.08404019  0.42307464     0.07400
C257        C  0.68812656  0.10830734  0.42347502     0.01200
H258        H  0.69545817  0.04462550  0.40416839     0.08900
H259        H  0.66448094  0.12744461  0.41947887     0.08000
N260        N  0.88821483  0.04601500  0.29899562    -0.35900
N261        N  0.89081654  0.05866137  0.25888456    -0.28100
C262        C  0.90050815  0.04048343  0.22221802    -0.03300
C263        C  0.90347997  0.01541429  0.24053138     0.05300
C264        C  0.89605564  0.01980930  0.28918215     0.03400
H265        H  0.90122000  0.04498844  0.18511250     0.08500
H266        H  0.89110192  0.00486655  0.31554328     0.07300
N267        N  0.58864076  0.35705162  0.20866601    -0.27000
N268        N  0.59423110  0.34622838  0.16485430    -0.34900
C269        C  0.60435768  0.31992301  0.16662285     0.01300
C270        C  0.60719897  0.31373515  0.21363551     0.07300
C271        C  0.59733529  0.33785490  0.23934256    -0.05800
H272        H  0.61986612  0.30705602  0.13573439     0.08000
H273        H  0.60286523  0.34158469  0.27696598     0.09200
Cu274      Cu  0.61887726  0.36831064  0.10515967     0.44200
Cu275      Cu  0.58166041  0.39830503  0.22294775     0.42000
Cu276      Cu  0.60918032  0.43819658  0.11851774     0.43900
N277        N  0.68732801  0.39369870  0.06543236    -0.34400
N278        N  0.68285382  0.41984566  0.06993053    -0.28700
C279        C  0.74845562  0.43090871  0.05880947    -0.04800
C280        C  0.79799613  0.41080510  0.04928436     0.07400
C281        C  0.75608780  0.38753150  0.05130559     0.01200
H282        H  0.76205101  0.45131193  0.06931866     0.08900
H283        H  0.77683448  0.36781511  0.05434538     0.08000
N284        N  0.58203023  0.45400726  0.18611899    -0.35900
N285        N  0.57577067  0.43997679  0.22472854    -0.28100
C286        C  0.57176402  0.45702480  0.26324120    -0.03300
C287        C  0.57612492  0.48285265  0.24788390     0.05300
C288        C  0.58231208  0.48011168  0.19886069     0.03400
H289        H  0.56970294  0.45106086  0.29962261     0.08500
H290        H  0.59158650  0.49586481  0.17419339     0.07300
O291        O  0.89616460  0.39094054  0.08043062    -0.72700
O292        O  0.04097135  0.39410390  0.17626667    -0.73700
O293        O  0.88896986  0.39591761  0.17964127    -0.62300
O294        O  0.04916447  0.38994056  0.07663860    -0.70700
O295        O  0.05433006  0.43405096  0.07423761    -0.70300
O296        O  0.89560835  0.44010575  0.18000389    -0.61500
O297        O  0.05024969  0.43818806  0.17502142    -0.74000
O298        O  0.89764072  0.43512191  0.08003326    -0.72800
Cu299      Cu  0.96873258  0.39128222  0.12794796     1.04600
Cu300      Cu  0.97483215  0.43848369  0.12671430     1.04300
C301        C  0.86943076  0.41244436  0.06840352     0.93500
C302        C  0.06828990  0.41619729  0.19119844     0.92600
C303        C  0.86721887  0.41869966  0.19635711     0.84800
C304        C  0.07981636  0.41120564  0.06122994     0.91100
N305        N  0.37942881  0.76085263  0.08950967    -0.03200
C306        C  0.45222534  0.76484037  0.09245674    -0.00600
C307        C  0.47897273  0.78335368  0.06058216    -0.23500
C308        C  0.42310827  0.78910694  0.03440366    -0.23700
C309        C  0.36318757  0.77438504  0.05135683    -0.00700
H310        H  0.53374818  0.79107032  0.05481257     0.13000
H311        H  0.42809121  0.80037922  0.00255978     0.13100
N312        N  0.57216236  0.75235439  0.12254760    -0.03200
C313        C  0.49855013  0.74957332  0.12173137    -0.00600
C314        C  0.47094288  0.73305895  0.15695424    -0.23500
C315        C  0.52667111  0.72779181  0.18326589    -0.23700
C316        C  0.58762950  0.74006489  0.16236617    -0.00700
H317        H  0.41616256  0.72596936  0.16462788     0.13000
H318        H  0.52239112  0.71733578  0.21602673     0.13100
N319        N  0.08592040  0.73041302  0.31789913    -0.03200
C320        C  0.01258945  0.72845636  0.31774929    -0.00600
C321        C  0.99032919  0.70429506  0.33668094    -0.23500
C322        C  0.04819256  0.69490120  0.35787520    -0.23700
C323        C  0.10573413  0.71223045  0.34785791    -0.00700
H324        H  0.93480254  0.69810862  0.34615178     0.13000
H325        H  0.04444410  0.68030003  0.38492878     0.13100
N326        N  0.89755184  0.74930238  0.35286140    -0.03200
C327        C  0.96957193  0.75162094  0.33874060    -0.00600
C328        C  0.00224818  0.76890054  0.37089083    -0.23500
C329        C  0.95165836  0.77443759  0.40803322    -0.23700
C330        C  0.88807395  0.76148575  0.39717736    -0.00700
H331        H  0.05970340  0.77308440  0.37194779     0.13000
H332        H  0.96233711  0.78471156  0.44144208     0.13100
N333        N  0.11391011  0.85791216  0.16729801    -0.27000
N334        N  0.12060078  0.84816694  0.12274791    -0.34900
C335        C  0.13204995  0.82184687  0.12249207     0.01300
C336        C  0.13406347  0.81467829  0.16896248     0.07300
C337        C  0.12275043  0.83805492  0.19645272    -0.05800
H338        H  0.14740343  0.80960499  0.09077872     0.08000
H339        H  0.12600853  0.84079803  0.23449079     0.09200
Cu340      Cu  0.14248872  0.87175512  0.06493816     0.44200
Cu341      Cu  0.10316915  0.89845270  0.18594923     0.42000
Cu342      Cu  0.13289485  0.94094271  0.08738312     0.43900
N343        N  0.21368095  0.89822101  0.03032508    -0.34400
N344        N  0.20906934  0.92424038  0.03814878    -0.28700
C345        C  0.27559418  0.93539805  0.03250879    -0.04800
C346        C  0.32568576  0.91537073  0.02444081     0.07400
C347        C  0.28364235  0.89222926  0.02008864     0.01200
H348        H  0.28760343  0.95523897  0.04689858     0.08900
H349        H  0.30318698  0.87229416  0.02265768     0.08000
N350        N  0.09872421  0.95492370  0.15521058    -0.35900
N351        N  0.09128813  0.93972109  0.19225161    -0.28100
C352        C  0.08081045  0.95549209  0.23216334    -0.03300
C353        C  0.08234743  0.98177848  0.21934977     0.05300
C354        C  0.09332118  0.98060129  0.17038821     0.03400
H355        H  0.07559193  0.94841917  0.26786665     0.08500
H356        H  0.10123750  0.99727625  0.14771446     0.07300
O357        O  0.21151587  0.79131716  0.21419252    -0.72700
O358        O  0.31465629  0.72539844  0.24272513    -0.73700
O359        O  0.33630198  0.76489960  0.17088112    -0.62300
O360        O  0.19108378  0.75183543  0.28397085    -0.70700
O361        O  0.12223767  0.72867730  0.23541110    -0.70300
O362        O  0.27124577  0.74002513  0.12248514    -0.61500
O363        O  0.24812056  0.70079903  0.19463436    -0.74000
O364        O  0.14753159  0.76761135  0.16328709    -0.72800
Cu365      Cu  0.26582902  0.75919868  0.22937290     1.04600
Cu366      Cu  0.19475153  0.73341430  0.17732361     1.04300
C367        C  0.16468607  0.78997295  0.18344228     0.93500
C368        C  0.29606677  0.70264756  0.22482442     0.92600
C369        C  0.32708074  0.75483462  0.12902248     0.84800
C370        C  0.13399538  0.73777605  0.27744150     0.91100
N371        N  0.35621161  0.63642598  0.25065769    -0.27000
N372        N  0.35635569  0.64912345  0.29286708    -0.34900
C373        C  0.33969413  0.67474574  0.28883084     0.01300
C374        C  0.32711591  0.67848986  0.24204877     0.07300
C375        C  0.33781597  0.65373083  0.21878065    -0.05800
H376        H  0.33058757  0.68899902  0.31863832     0.08000
H377        H  0.33025398  0.64850275  0.18189302     0.09200
Cu378      Cu  0.35649319  0.62970560  0.35607271     0.44200
Cu379      Cu  0.37577367  0.59540074  0.24109815     0.42000
Cu380      Cu  0.38040596  0.56026529  0.35071318     0.43900
N381        N  0.30084859  0.60461442  0.40321909    -0.34400
N382        N  0.30771841  0.57853787  0.39985256    -0.28700
C383        C  0.24350903  0.56686765  0.41273711    -0.04800
C384        C  0.19261539  0.58648457  0.42259271     0.07400
C385        C  0.23258787  0.61012480  0.41949651     0.01200
H386        H  0.23108207  0.54625220  0.40302670     0.08900
H387        H  0.20980132  0.62946272  0.41593842     0.08000
N388        N  0.40058766  0.54235917  0.28409085    -0.35900
N389        N  0.39678303  0.55461739  0.24399861    -0.28100
C390        C  0.40019510  0.53614407  0.20765815    -0.03300
C391        C  0.40512550  0.51120789  0.22600710     0.05300
C392        C  0.40534839  0.51597290  0.27451812     0.03400
H393        H  0.39457854  0.54038302  0.17098453     0.08500
H394        H  0.40413615  0.50125913  0.30126495     0.07300
N395        N  0.33246908  0.63242889  0.51570103    -0.27000
N396        N  0.29888649  0.64209585  0.05582153    -0.34900
C397        C  0.27418822  0.66628815  0.04907024     0.01300
C398        C  0.29342162  0.67245722  0.50260301     0.07300
C399        C  0.33196964  0.65089221  0.48254488    -0.05800
H400        H  0.24187777  0.67808532  0.07564471     0.08000
H401        H  0.35333037  0.64812131  0.44587716     0.09200
Cu402      Cu  0.27709483  0.62138782  0.11662105     0.44200
Cu403      Cu  0.35997334  0.59240019  0.50729265     0.42000
Cu404      Cu  0.29392527  0.55164169  0.10979679     0.43900
N405        N  0.23716972  0.59798104  0.17101286    -0.34400
N406        N  0.24151897  0.57177220  0.16865186    -0.28700
C407        C  0.20193703  0.56203237  0.20643655    -0.04800
C408        C  0.17139309  0.58329833  0.23359067     0.07400
C409        C  0.19524073  0.60573056  0.21011258     0.01200
H410        H  0.19310951  0.54105479  0.21236892     0.08900
H411        H  0.17975876  0.62608367  0.21918231     0.08000
N412        N  0.33767967  0.53646940  0.04381961    -0.35900
N413        N  0.35999457  0.55084895  0.50706031    -0.28100
C414        C  0.37381027  0.53430216  0.46851416    -0.03300
C415        C  0.35989974  0.50843758  0.48153294     0.05300
C416        C  0.33773966  0.51052215  0.02954047     0.03400
H417        H  0.38903066  0.54068370  0.43300741     0.08500
H418        H  0.31683709  0.49455418  0.05144856     0.07300
N419        N  0.14342890  0.85881666  0.41374647    -0.27000
N420        N  0.16299905  0.85102768  0.36920641    -0.34900
C421        C  0.18298227  0.82547926  0.36731868     0.01300
C422        C  0.17452842  0.81640513  0.41274597     0.07300
C423        C  0.14879253  0.83794953  0.44145269    -0.05800
H424        H  0.20406959  0.81455476  0.33533236     0.08000
H425        H  0.13887258  0.83881187  0.47981234     0.09200
Cu426      Cu  0.17234265  0.87615728  0.31370450     0.44200
Cu427      Cu  0.12154027  0.89881956  0.43324895     0.42000
Cu428      Cu  0.17678221  0.94609455  0.33928381     0.43900
N429        N  0.21754497  0.90288693  0.26658427    -0.34400
N430        N  0.22331892  0.92878150  0.27634162    -0.28700
C431        C  0.27154247  0.93947826  0.24383666    -0.04800
C432        C  0.29749278  0.91907224  0.21272099     0.07400
C433        C  0.26141108  0.89631431  0.22791919     0.01200
H434        H  0.29130300  0.95991990  0.24557289     0.08900
H435        H  0.27217422  0.87603409  0.21508230     0.08000
N436        N  0.13372289  0.95708188  0.40734307    -0.35900
N437        N  0.11470094  0.94045735  0.44138389    -0.28100
C438        C  0.09790049  0.95488827  0.48218547    -0.03300
C439        C  0.10717766  0.98165381  0.47342256     0.05300
C440        C  0.12913816  0.98226949  0.42554643     0.03400
H441        H  0.08294338  0.94649317  0.01612434     0.08500
H442        H  0.14664801  0.99965373  0.40622138     0.07300
O443        O  0.24526820  0.75928014  0.03001481    -0.72700
O444        O  0.12578781  0.72564987  0.42794461    -0.73700
O445        O  0.21227003  0.70725959  0.99888378    -0.62300
O446        O  0.15776060  0.77908600  0.46127582    -0.70700
O447        O  0.24922540  0.77836633  0.40516751    -0.70300
O448        O  0.30730877  0.70628470  0.44539534    -0.61500
O449        O  0.22063338  0.72516891  0.37436291    -0.74000
O450        O  0.33699483  0.75968245  0.47417853    -0.72800
Cu451      Cu  0.18156729  0.74270067  0.48113280     1.04600
Cu452      Cu  0.28183963  0.74236707  0.42292161     1.04300
C453        C  0.31177569  0.76425230  0.01730104     0.93500
C454        C  0.15358358  0.72065180  0.38531410     0.92600
C455        C  0.26980332  0.69617233  0.48042903     0.84800
C456        C  0.19483718  0.79009447  0.42719610     0.91100
O457        O  0.76382916  0.74899180  0.42593587    -0.72700
O458        O  0.60783427  0.74960659  0.53929621    -0.73700
O459        O  0.66655098  0.78665842  0.46856443    -0.62300
O460        O  0.70259092  0.71117730  0.49379538    -0.70700
O461        O  0.78110897  0.72458547  0.04574889    -0.70300
O462        O  0.74872478  0.80082719  0.51755765    -0.61500
O463        O  0.68880688  0.76425798  0.08836766    -0.74000
O464        O  0.84163470  0.76222808  0.47810172    -0.72800
Cu465      Cu  0.68199476  0.74863948  0.48036182     1.04600
Cu466      Cu  0.76767756  0.76338940  0.53420841     1.04300
C467        C  0.82769505  0.75708069  0.43493967     0.93500
C468        C  0.62434419  0.75622629  0.08179680     0.92600
C469        C  0.70666332  0.80521668  0.48527656     0.84800
C470        C  0.74521097  0.70594726  0.52503507     0.91100
N471        N  0.75446219  0.86877707  0.43481341    -0.27000
N472        N  0.70074703  0.86088194  0.40922905    -0.34900
C473        C  0.67244692  0.83782358  0.42527896     0.01300
C474        C  0.71012175  0.83094556  0.46298075     0.07300
C475        C  0.76306390  0.85058634  0.46707724    -0.05800
H476        H  0.62987677  0.82631868  0.40926895     0.08000
H477        H  0.80524225  0.85145019  0.49140670     0.09200
Cu478      Cu  0.67324707  0.88106193  0.35167949     0.44200
Cu479      Cu  0.80724302  0.90523304  0.42696242     0.42000
Cu480      Cu  0.74581588  0.94775418  0.33627107     0.43900
N481        N  0.65216143  0.90389528  0.29588568    -0.34400
N482        N  0.67628631  0.92861349  0.29019906    -0.28700
C483        C  0.64786032  0.93793082  0.25192183    -0.04800
C484        C  0.60469916  0.91787445  0.23267625     0.07400
C485        C  0.60914962  0.89665792  0.26133637     0.01200
H486        H  0.65771900  0.95774524  0.23918349     0.08900
H487        H  0.58149661  0.87750498  0.25811764     0.08000
N488        N  0.80742293  0.96116953  0.39177529    -0.35900
N489        N  0.82940328  0.94569950  0.42409074    -0.28100
C490        C  0.85550484  0.96103055  0.45941867    -0.03300
C491        C  0.84990690  0.98737189  0.44905915     0.05300
C492        C  0.81984138  0.98676869  0.40573568     0.03400
H493        H  0.87131843  0.95362708  0.99223765     0.08500
H494        H  0.80076442  0.00366667  0.38845154     0.07300
N495        N  0.71966176  0.63605999  0.55103385    -0.27000
N496        N  0.75986631  0.64480446  0.08524873    -0.34900
C497        C  0.77896323  0.67042846  0.07934513     0.01300
C498        C  0.74904651  0.67842231  0.53945524     0.07300
C499        C  0.71154713  0.65617971  0.52230073    -0.05800
H500        H  0.80875178  0.68271301  0.10393753     0.08000
H501        H  0.67841914  0.65504943  0.49244720     0.09200
Cu502      Cu  0.78098843  0.62226349  0.14060365     0.44200
Cu503      Cu  0.67735488  0.59716932  0.54849306     0.42000
Cu504      Cu  0.72951138  0.55326695  0.14210485     0.43900
N505        N  0.80665806  0.59781749  0.19219272    -0.34400
N506        N  0.79145869  0.57201622  0.19267620    -0.28700
C507        C  0.82584091  0.56166899  0.22760361    -0.04800
C508        C  0.86362467  0.58224009  0.24987337     0.07400
C509        C  0.84960889  0.60476054  0.22670178     0.01200
H510        H  0.82566428  0.54073962  0.23489927     0.08900
H511        H  0.87279560  0.62453192  0.23240812     0.08000
N512        N  0.67290890  0.54073024  0.08403497    -0.35900
N513        N  0.65403669  0.55635453  0.55091734    -0.28100
C514        C  0.62722910  0.54105764  0.51573844    -0.03300
C515        C  0.63014259  0.51467565  0.52672448     0.05300
C516        C  0.65848504  0.51520306  0.07055585     0.03400
H517        H  0.61113040  0.54846403  0.48305621     0.08500
H518        H  0.67409495  0.49819064  0.08905695     0.07300
O519        O  0.93818419  0.55916101  0.29885936    -0.72700
O520        O  0.09532972  0.56157064  0.39011352    -0.73700
O521        O  0.93866372  0.56002622  0.39917921    -0.62300
O522        O  0.09290643  0.56030007  0.28993697    -0.70700
O523        O  0.09368807  0.60453041  0.29432090    -0.70300
O524        O  0.93836045  0.60425094  0.40163215    -0.61500
O525        O  0.09149235  0.60575026  0.39405932    -0.74000
O526        O  0.94123546  0.60341029  0.30229704    -0.72800
Cu527      Cu  0.01623853  0.55862703  0.34491090     1.04600
Cu528      Cu  0.01616913  0.60591757  0.34855856     1.04300
C529        C  0.91614136  0.58131261  0.28572950     0.93500
C530        C  0.12106978  0.58429918  0.40373186     0.92600
C531        C  0.91100694  0.58206475  0.41521442     0.84800
C532        C  0.11721178  0.58259487  0.27474626     0.91100
N533        N  0.64981342  0.63187433  0.30939970    -0.27000
N534        N  0.65125912  0.64309448  0.35274783    -0.34900
C535        C  0.66442016  0.66939104  0.34967912     0.01300
C536        C  0.67307144  0.67503011  0.30216882     0.07300
C537        C  0.66391915  0.65079770  0.27748043    -0.05800
H538        H  0.67396850  0.68294919  0.37964229     0.08000
H539        H  0.66924005  0.64707221  0.23927272     0.09200
Cu540      Cu  0.66054122  0.62165548  0.41243389     0.44200
Cu541      Cu  0.63232413  0.59094807  0.29674284     0.42000
Cu542      Cu  0.64777945  0.55173472  0.39810642     0.43900
N543        N  0.72869687  0.59700129  0.44326493    -0.34400
N544        N  0.72477117  0.57083414  0.43708240    -0.28700
C545        C  0.79107729  0.56093302  0.43851526    -0.04800
C546        C  0.84025903  0.58193954  0.44298513     0.07400
C547        C  0.79780294  0.60436837  0.44857358     0.01200
H548        H  0.80462978  0.54101150  0.42485544     0.08900
H549        H  0.81770363  0.62459613  0.44407986     0.08000
N550        N  0.60928552  0.53616650  0.33582671    -0.35900
N551        N  0.60741698  0.55013291  0.29750529    -0.28100
C552        C  0.59194769  0.53345578  0.26071689    -0.03300
C553        C  0.58398975  0.50783790  0.27678250     0.05300
C554        C  0.59493030  0.51036179  0.32458731     0.03400
H555        H  0.58971756  0.53937798  0.22456354     0.08500
H556        H  0.59725200  0.49439596  0.34863292     0.07300
N557        N  0.84589037  0.86321244  0.19516207    -0.27000
N558        N  0.84569440  0.85123677  0.15235859    -0.34900
C559        C  0.83261332  0.82499556  0.15659181     0.01300
C560        C  0.82262899  0.81997855  0.20437082     0.07300
C561        C  0.83096032  0.84471168  0.22798489    -0.05800
H562        H  0.82452777  0.81096095  0.12704662     0.08000
H563        H  0.82484704  0.84899835  0.26603710     0.09200
Cu564      Cu  0.84028550  0.87184032  0.09123587     0.44200
Cu565      Cu  0.86349491  0.90476308  0.20394044     0.42000
Cu566      Cu  0.86314280  0.94132661  0.09367237     0.43900
N567        N  0.78019552  0.89603569  0.05328505    -0.34400
N568        N  0.78850402  0.92216475  0.05380201    -0.28700
C569        C  0.72508960  0.93303224  0.04640866    -0.04800
C570        C  0.67352756  0.91278213  0.04275868     0.07400
C571        C  0.71132583  0.88969131  0.04584207     0.01200
H572        H  0.71358095  0.95381683  0.05481251     0.08900
H573        H  0.68712077  0.87037799  0.05344695     0.08000
N574        N  0.89018588  0.95826935  0.15761070    -0.35900
N575        N  0.88677294  0.94587845  0.19808516    -0.28100
C576        C  0.89481107  0.96430022  0.23375380    -0.03300
C577        C  0.90290515  0.98923993  0.21462451     0.05300
C578        C  0.90000322  0.98456742  0.16634638     0.03400
H579        H  0.89132654  0.96001306  0.27105831     0.08500
H580        H  0.89981843  0.99932734  0.13976787     0.07300
O581        O  0.63758278  0.75652927  0.23211635    -0.72700
O582        O  0.78229503  0.75819999  0.32954164    -0.73700
O583        O  0.74926005  0.79351553  0.25865727    -0.62300
O584        O  0.67284575  0.72224237  0.30323618    -0.70700
O585        O  0.74713277  0.70130238  0.24865937    -0.70300
O586        O  0.82349741  0.77258549  0.20414496    -0.61500
O587        O  0.85925009  0.73746874  0.27666840    -0.74000
O588        O  0.71220340  0.73578746  0.17748801    -0.72800
Cu589      Cu  0.70783930  0.75841668  0.28249276     1.04600
Cu590      Cu  0.78862637  0.73616022  0.22489362     1.04300
C591        C  0.65010785  0.74528131  0.19066948     0.93500
C592        C  0.84365389  0.74761000  0.31881140     0.92600
C593        C  0.79797908  0.79422058  0.22385570     0.84800
C594        C  0.69826981  0.70067893  0.28334861     0.91100
O595        O  0.41413548  0.89427827  0.06417169    -0.72700
O596        O  0.53669186  0.89624291  0.17411281    -0.73700
O597        O  0.38697147  0.89691940  0.16280094    -0.62300
O598        O  0.56448863  0.89355581  0.07474087    -0.70700
O599        O  0.57139138  0.93773056  0.07438125    -0.70300
O600        O  0.39276848  0.94115471  0.16637232    -0.61500
O601        O  0.54579195  0.94038009  0.17451608    -0.74000
O602        O  0.41682828  0.93850809  0.06601671    -0.72800
Cu603      Cu  0.47562878  0.89381712  0.11860181     1.04600
Cu604      Cu  0.48201906  0.94108169  0.11988043     1.04300
C605        C  0.39129629  0.91612137  0.05054222     0.93500
C606        C  0.56070419  0.91832669  0.19170730     0.92600
C607        C  0.36173443  0.91927793  0.17876739     0.84800
C608        C  0.59834010  0.91491834  0.06290176     0.91100
N609        N  0.38352683  0.24588845  0.87812225    -0.03200
C610        C  0.45432362  0.25109654  0.88637420    -0.00600
C611        C  0.48249395  0.27020849  0.85553267    -0.23500
C612        C  0.43094694  0.27457220  0.82485936    -0.23700
C613        C  0.37101135  0.25927982  0.83891069    -0.00700
H614        H  0.53860573  0.27668220  0.85002511     0.13000
H615        H  0.43894369  0.28568114  0.79289894     0.13100
N616        N  0.57644726  0.23405302  0.88956449    -0.03200
C617        C  0.50375416  0.22966209  0.89865266    -0.00600
C618        C  0.48681864  0.20527312  0.87608601    -0.23500
C619        C  0.54331708  0.19968501  0.84254121    -0.23700
C620        C  0.59595873  0.21896591  0.84979575    -0.00700
H621        H  0.43276454  0.19693560  0.87336272     0.13000
H622        H  0.54058296  0.18612150  0.81168308     0.13100
N623        N  0.06560344  0.24695093  0.59639829    -0.03200
C624        C  0.99400794  0.24374734  0.58866276    -0.00600
C625        C  0.96292049  0.22487767  0.61899948    -0.23500
C626        C  0.01372358  0.21897123  0.64928804    -0.23700
C627        C  0.07604736  0.23299753  0.63534417    -0.00700
H628        H  0.90584103  0.21982737  0.62488996     0.13000
H629        H  0.00374005  0.20794080  0.68123148     0.13100
N630        N  0.87549052  0.26431703  0.58835604    -0.03200
C631        C  0.94864483  0.26693377  0.57901937    -0.00600
C632        C  0.97033522  0.29036050  0.60286189    -0.23500
C633        C  0.91480810  0.29705929  0.63648847    -0.23700
C634        C  0.85858809  0.27932661  0.62863398    -0.00700
H635        H  0.02580845  0.29708978  0.60594872     0.13000
H636        H  0.92015426  0.30998764  0.66790607     0.13100
N637        N  0.18540564  0.12625680  0.53884156    -0.27000
N638        N  0.22568368  0.13465078  0.57325113    -0.34900
C639        C  0.24926317  0.15967844  0.56593387     0.01300
C640        C  0.22224232  0.16769342  0.52500169     0.07300
C641        C  0.18117973  0.14614527  0.50889246    -0.05800
H642        H  0.28161473  0.17149613  0.58970181     0.08000
H643        H  0.15021890  0.14510803  0.97803611     0.09200
Cu644      Cu  0.24525773  0.11224176  0.62952802     0.44200
Cu645      Cu  0.14382458  0.08728327  0.53520602     0.42000
Cu646      Cu  0.21233463  0.04277247  0.62393517     0.43900
N647        N  0.27619162  0.08795529  0.68026715    -0.34400
N648        N  0.26786516  0.06177227  0.67820025    -0.28700
C649        C  0.30303275  0.05184727  0.71331630    -0.04800
C650        C  0.33447816  0.07306969  0.73832713     0.07400
C651        C  0.31566034  0.09551223  0.71641304     0.01200
H652        H  0.30765297  0.03085691  0.71903089     0.08900
H653        H  0.33298456  0.11585593  0.72440492     0.08000
N654        N  0.15458043  0.03015488  0.56584443    -0.35900
N655        N  0.12877891  0.04594725  0.53533219    -0.28100
C656        C  0.10156949  0.03076040  0.00014999    -0.03300
C657        C  0.11104200  0.00428797  0.00840777     0.05300
C658        C  0.14441698  0.00462995  0.55042859     0.03400
H659        H  0.08091723  0.03842819  0.96898869     0.08500
H660        H  0.16605691  0.98771994  0.56620701     0.07300
O661        O  0.10510342  0.24453317  0.51490222    -0.72700
O662        O  0.26289357  0.23621823  0.90740987    -0.73700
O663        O  0.18817311  0.20140283  0.97544959    -0.62300
O664        O  0.17909613  0.27840252  0.94655398    -0.70700
O665        O  0.26125963  0.28919145  0.49756227    -0.70300
O666        O  0.26903625  0.21201459  0.52739897    -0.61500
O667        O  0.34404703  0.24603836  0.95938178    -0.74000
O668        O  0.18662590  0.25487234  0.56639478    -0.72800
Cu669      Cu  0.18090409  0.23974560  0.95939533     1.04600
Cu670      Cu  0.26812113  0.25085535  0.51441511     1.04300
C671        C  0.12095441  0.24979321  0.55776236     0.93500
C672        C  0.32841211  0.24151527  0.91634391     0.92600
C673        C  0.22765431  0.19481012  0.50771257     0.84800
C674        C  0.22117320  0.29562239  0.96543096     0.91100
N675        N  0.26496979  0.36328220  0.93000840    -0.27000
N676        N  0.22029159  0.35501864  0.89805137    -0.34900
C677        C  0.19565078  0.33035104  0.90736890     0.01300
C678        C  0.22650682  0.32248699  0.94710828     0.07300
C679        C  0.27109591  0.34367586  0.96025256    -0.05800
H680        H  0.16007973  0.31860651  0.88561552     0.08000
H681        H  0.30582380  0.34464276  0.48926212     0.09200
Cu682      Cu  0.19830241  0.37695981  0.84161764     0.44200
Cu683      Cu  0.30985019  0.40171579  0.93004535     0.42000
Cu684      Cu  0.25722706  0.44468911  0.83416303     0.43900
N685        N  0.17341982  0.40051208  0.78803247    -0.34400
N686        N  0.19222964  0.42593551  0.78512261    -0.28700
C687        C  0.15951438  0.43590741  0.74904770    -0.04800
C688        C  0.11891584  0.41549538  0.72849228     0.07400
C689        C  0.12960724  0.39344233  0.75398360     0.01200
H690        H  0.16322060  0.45650844  0.73952857     0.08900
H691        H  0.10429819  0.37391665  0.74972069     0.08000
N692        N  0.31286523  0.45777715  0.89256211    -0.35900
N693        N  0.33021782  0.44263011  0.92683170    -0.28100
C694        C  0.35477831  0.45840249  0.96220224    -0.03300
C695        C  0.35314265  0.48456766  0.94975763     0.05300
C696        C  0.32700360  0.48345142  0.90522527     0.03400
H697        H  0.36884408  0.45146648  0.49577229     0.08500
H698        H  0.31289840  0.50019457  0.88546542     0.07300
O699        O  0.75564910  0.25985641  0.56530153    -0.72700
O700        O  0.60538467  0.24413530  0.96929283    -0.73700
O701        O  0.68810464  0.21330366  0.52923908    -0.62300
O702        O  0.67377077  0.29076021  0.50657165    -0.70700
O703        O  0.76303628  0.28597476  0.94935562    -0.70300
O704        O  0.77667827  0.20853017  0.97154870    -0.61500
O705        O  0.69558655  0.23950399  0.91314963    -0.74000
O706        O  0.84539432  0.25480725  0.50892199    -0.72800
Cu707      Cu  0.67765590  0.25211323  0.51964064     1.04600
Cu708      Cu  0.77318958  0.24714097  0.95874961     1.04300
C709        C  0.82376899  0.25915691  0.55285929     0.93500
C710        C  0.62741404  0.23978311  0.92539043     0.92600
C711        C  0.73605360  0.19906819  0.50558358     0.84800
C712        C  0.71475021  0.30021460  0.97266623     0.91100
N713        N  0.78832558  0.13162157  0.52577328    -0.27000
N714        N  0.75870569  0.13962209  0.56803081    -0.34900
C715        C  0.73282003  0.16409766  0.56616008     0.01300
C716        C  0.74784350  0.17228063  0.52058123     0.07300
C717        C  0.78413011  0.15146242  0.49578371    -0.05800
H718        H  0.70713104  0.17541872  0.59629178     0.08000
H719        H  0.80559585  0.15083042  0.95896723     0.09200
Cu720      Cu  0.75364952  0.11733480  0.62641308     0.44200
Cu721      Cu  0.82543475  0.09299310  0.51371195     0.42000
Cu722      Cu  0.77783130  0.04806577  0.61445903     0.43900
N723        N  0.71889538  0.09253211  0.67860429    -0.34400
N724        N  0.72305859  0.06635195  0.67422767    -0.28700
C725        C  0.67957121  0.05579838  0.70951517    -0.04800
C726        C  0.64679699  0.07664497  0.73664321     0.07400
C727        C  0.67368884  0.09951857  0.71628186     0.01200
H728        H  0.66854760  0.03470853  0.71296574     0.08900
H729        H  0.65649255  0.11968184  0.72537017     0.08000
N730        N  0.82463431  0.03618582  0.54732530    -0.35900
N731        N  0.84046525  0.05202044  0.51158028    -0.28100
C732        C  0.85824322  0.03692133  0.97186674    -0.03300
C733        C  0.85332462  0.01048960  0.98285552     0.05300
C734        C  0.83278702  0.01072670  0.53108049     0.03400
H735        H  0.86924379  0.04451449  0.93691114     0.08500
H736        H  0.81770502  0.99363352  0.55182140     0.07300
N737        N  0.66711480  0.36829593  0.95208859    -0.27000
N738        N  0.69879301  0.36026987  0.91043353    -0.34900
C739        C  0.72226095  0.33546352  0.91244490     0.01300
C740        C  0.70351990  0.32703473  0.95745971     0.07300
C741        C  0.66713967  0.34802960  0.98168624    -0.05800
H742        H  0.74946610  0.32419093  0.88281380     0.08000
H743        H  0.64372774  0.34859842  0.51809452     0.09200
Cu744      Cu  0.70945809  0.38279002  0.85243932     0.44200
Cu745      Cu  0.63621237  0.40784286  0.96408875     0.42000
Cu746      Cu  0.69390896  0.45189951  0.86194730     0.43900
N747        N  0.74270652  0.40604741  0.79777252    -0.34400
N748        N  0.74215037  0.43230229  0.80087936    -0.28700
C749        C  0.78320758  0.44151470  0.76314045    -0.04800
C750        C  0.81035173  0.41967466  0.73571093     0.07400
C751        C  0.78279354  0.39767146  0.75859204     0.01200
H752        H  0.79654917  0.46231060  0.75799721     0.08900
H753        H  0.79650902  0.37709305  0.74998891     0.08000
N754        N  0.65012037  0.46469696  0.92967131    -0.35900
N755        N  0.63038114  0.44935508  0.96561809    -0.28100
C756        C  0.61465294  0.46505033  0.00503501    -0.03300
C757        C  0.62479639  0.49132366  0.99356093     0.05300
C758        C  0.64673107  0.49036028  0.94552888     0.03400
H759        H  0.60090945  0.45786786  0.54012451     0.08500
H760        H  0.66562218  0.50696154  0.92463182     0.07300
O761        O  0.39830490  0.09899093  0.89225842    -0.72700
O762        O  0.56007261  0.09780237  0.79056269    -0.73700
O763        O  0.40758282  0.09574520  0.79244241    -0.62300
O764        O  0.55092684  0.10165605  0.88958503    -0.70700
O765        O  0.55676460  0.05757752  0.88908751    -0.70300
O766        O  0.40717150  0.05157219  0.79143069    -0.61500
O767        O  0.56218666  0.05360176  0.78901006    -0.74000
O768        O  0.39969363  0.05483967  0.89272881    -0.72800
Cu769      Cu  0.47897540  0.09995910  0.84149006     1.04600
Cu770      Cu  0.48130261  0.05274713  0.84106042     1.04300
C771        C  0.37088455  0.07701511  0.90671298     0.93500
C772        C  0.58710468  0.07580281  0.77392712     0.92600
C773        C  0.38492563  0.07319476  0.77609547     0.84800
C774        C  0.58075291  0.08077783  0.90171954     0.91100
N775        N  0.12690779  0.13038273  0.79377196    -0.27000
N776        N  0.12411552  0.14124443  0.83754089    -0.34900
C777        C  0.13762056  0.16761524  0.83563345     0.01300
C778        C  0.15089388  0.17360437  0.78843964     0.07300
C779        C  0.14393812  0.14955882  0.76281135    -0.05800
H780        H  0.14397663  0.18097366  0.86636775     0.08000
H781        H  0.15280004  0.14612716  0.72463860     0.09200
Cu782      Cu  0.12643716  0.11880084  0.89676353     0.44200
Cu783      Cu  0.11259091  0.08948599  0.77930730     0.42000
Cu784      Cu  0.11216162  0.04829047  0.88050007     0.43900
N785        N  0.18923455  0.09313582  0.92976189    -0.34400
N786        N  0.18422117  0.06698304  0.92354610    -0.28700
C787        C  0.24941613  0.05660729  0.92722149    -0.04800
C788        C  0.29917251  0.07725971  0.93303997     0.07400
C789        C  0.25794442  0.09996248  0.93724632     0.01200
H790        H  0.26281993  0.03663351  0.91378513     0.08900
H791        H  0.27935049  0.12003013  0.93312761     0.08000
N792        N  0.08965327  0.03352445  0.81378151    -0.35900
N793        N  0.09335355  0.04830611  0.77616121    -0.28100
C794        C  0.08829949  0.03219951  0.73699269    -0.03300
C795        C  0.08151312  0.00610673  0.75071335     0.05300
C796        C  0.08234119  0.00771121  0.79963606     0.03400
H797        H  0.09236052  0.03892154  0.70104724     0.08500
H798        H  0.08226852  0.99128004  0.82293485     0.07300
N799        N  0.32579664  0.36040330  0.67764294    -0.27000
N800        N  0.32700367  0.34862466  0.63457233    -0.34900
C801        C  0.31063533  0.32257444  0.63819438     0.01300
C802        C  0.29682113  0.31760244  0.68570899     0.07300
C803        C  0.30669639  0.34200016  0.70991390    -0.05800
H804        H  0.30311347  0.30875041  0.60826037     0.08000
H805        H  0.29919744  0.34614443  0.74797141     0.09200
Cu806      Cu  0.32553110  0.36907689  0.57314166     0.44200
Cu807      Cu  0.34728438  0.40148159  0.68875640     0.42000
Cu808      Cu  0.34308520  0.43830168  0.58113012     0.43900
N809        N  0.26082475  0.39319373  0.53852820    -0.34400
N810        N  0.26753296  0.41937710  0.54127760    -0.28700
C811        C  0.20261994  0.42996175  0.53749905    -0.04800
C812        C  0.15145484  0.40947796  0.53496615     0.07400
C813        C  0.19128755  0.38648872  0.53333383     0.01200
H814        H  0.19080179  0.45043147  0.54859173     0.08900
H815        H  0.16902311  0.36681579  0.54030557     0.08000
N816        N  0.37701034  0.45477200  0.64384250    -0.33900
N817        N  0.37532805  0.44218924  0.68400983    -0.28100
C818        C  0.38902192  0.46017793  0.71942105    -0.03300
C819        C  0.39901543  0.48509312  0.70037907     0.05300
C820        C  0.39138224  0.48079093  0.65246176     0.03400
H821        H  0.38804724  0.45570304  0.75655701     0.08500
H822        H  0.39136977  0.49573193  0.62621423     0.07300
O823        O  0.11332159  0.25098490  0.70946206    -0.72700
O824        O  0.25022410  0.26095073  0.81448182    -0.73700
O825        O  0.21807160  0.29150361  0.73718612    -0.62300
O826        O  0.14731443  0.22083145  0.78759333    -0.70700
O827        O  0.22899860  0.20008372  0.73781839    -0.70300
O828        O  0.29952421  0.27051367  0.68761190    -0.61500
O829        O  0.33337544  0.24047323  0.76555849    -0.74000
O830        O  0.19645448  0.23055022  0.66048918    -0.72800
Cu831      Cu  0.17907184  0.25678220  0.76369194     1.04600
Cu832      Cu  0.26767064  0.23467426  0.71139374     1.04300
C833        C  0.13211810  0.23901625  0.66925558     0.93500
C834        C  0.31462179  0.25257487  0.80563410     0.92600
C835        C  0.27046661  0.29207565  0.70473568     0.84800
C836        C  0.17676901  0.19936273  0.77032071     0.91100
O837        O  0.63331956  0.22228450  0.76719333    -0.72700
O838        O  0.76306441  0.25082638  0.65940743    -0.73700
O839        O  0.76440381  0.20622667  0.71918933    -0.62300
O840        O  0.63209454  0.26742166  0.70610867    -0.70700
O841        O  0.68939774  0.29235521  0.75894135    -0.70300
O842        O  0.82112405  0.23098168  0.77254889    -0.61500
O843        O  0.82081848  0.27615911  0.71126532    -0.74000
O844        O  0.69036183  0.24792342  0.81898994    -0.72800
Cu845      Cu  0.69601436  0.23586465  0.71124027     1.04600
Cu846      Cu  0.75768964  0.26270810  0.76716045     1.04300
C847        C  0.64298719  0.22987674  0.81019820     0.93500
C848        C  0.81093111  0.26868822  0.66823286     0.92600
C849        C  0.81055743  0.20855478  0.75035546     0.84800
C850        C  0.64258344  0.28986960  0.72819834     0.91100
N851        N  0.86190478  0.14108383  0.77097510    -0.27000
N852        N  0.85369485  0.15191671  0.81474934    -0.34900
C853        C  0.84408703  0.17822772  0.81274133     0.01300
C854        C  0.84434735  0.18449767  0.76558668     0.07300
C855        C  0.85530163  0.16035411  0.74002169    -0.05800
H856        H  0.82719601  0.19110223  0.84334687     0.08000
H857        H  0.85267019  0.15672129  0.70208877     0.09200
Cu858      Cu  0.82641004  0.13012058  0.87442955     0.44200
Cu859      Cu  0.87317503  0.09979731  0.75698848     0.42000
Cu860      Cu  0.85208008  0.06243048  0.86429774     0.43900
N861        N  0.75887633  0.10389888  0.91277690    -0.34400
N862        N  0.76846335  0.07799326  0.90843504    -0.28700
C863        C  0.70409848  0.06525725  0.91563223    -0.04800
C864        C  0.65046366  0.08405163  0.92305466     0.07400
C865        C  0.68812860  0.10831742  0.92345494     0.01200
H866        H  0.69544585  0.04463485  0.90415793     0.08900
H867        H  0.66449043  0.12745548  0.91945410     0.08000
N868        N  0.88821583  0.04601689  0.79899603    -0.35900
N869        N  0.89082410  0.05866382  0.75888530    -0.28100
C870        C  0.90051726  0.04048627  0.72221823    -0.03300
C871        C  0.90348298  0.01541665  0.74053077     0.05300
C872        C  0.89605329  0.01981105  0.78918187     0.03400
H873        H  0.90123426  0.04499197  0.68511299     0.08500
H874        H  0.89109184  0.00486795  0.81554256     0.07300
N875        N  0.58865967  0.35705756  0.70866746    -0.27000
N876        N  0.59424784  0.34623553  0.66485493    -0.34900
C877        C  0.60436986  0.31992968  0.66662090     0.01300
C878        C  0.60721008  0.31374008  0.71363284     0.07300
C879        C  0.59735082  0.33785947  0.73934213    -0.05800
H880        H  0.61987516  0.30706322  0.63573088     0.08000
H881        H  0.60288063  0.34158775  0.77696529     0.09200
Cu882      Cu  0.61888979  0.36832027  0.60516236     0.44200
Cu883      Cu  0.58168614  0.39831121  0.72295180     0.42000
Cu884      Cu  0.60917851  0.43820520  0.61851992     0.43900
N885        N  0.68732954  0.39370992  0.56543000    -0.34400
N886        N  0.68284992  0.41985664  0.56992857    -0.28700
C887        C  0.74844813  0.43092189  0.55880381    -0.04800
C888        C  0.79799275  0.41081981  0.54927535     0.07400
C889        C  0.75608945  0.38754486  0.55129855     0.01200
H890        H  0.76203977  0.45132492  0.56931262     0.08900
H891        H  0.77684126  0.36782947  0.55433661     0.08000
N892        N  0.58205042  0.45401456  0.68612474    -0.35900
N893        N  0.57579989  0.43998332  0.72473363    -0.28100
C894        C  0.57180185  0.45703083  0.76324688    -0.03300
C895        C  0.57615929  0.48285902  0.74789082     0.05300
C896        C  0.58233634  0.48011879  0.69886769     0.03400
H897        H  0.56974555  0.45106629  0.79962804     0.08500
H898        H  0.59160227  0.49587286  0.67419985     0.07300
O899        O  0.89616894  0.39095725  0.58041562    -0.72700
O900        O  0.04095979  0.39412008  0.67626078    -0.73700
O901        O  0.88896089  0.39592994  0.67962688    -0.62300
O902        O  0.04916774  0.38996178  0.57663139    -0.70700
O903        O  0.05432615  0.43407259  0.57423616    -0.70300
O904        O  0.89559442  0.44011826  0.67999712    -0.61500
O905        O  0.05023328  0.43820460  0.67502186    -0.74000
O906        O  0.89763386  0.43513874  0.58002611    -0.72800
Cu907      Cu  0.96872997  0.39129897  0.62793682     1.04600
Cu908      Cu  0.97482182  0.43850073  0.62671039     1.04300
C909        C  0.86942925  0.41246080  0.56839250     0.93500
C910        C  0.06827097  0.41621339  0.69119878     0.92600
C911        C  0.86720787  0.41871089  0.69634673     0.84800
C912        C  0.07981751  0.41122820  0.56122672     0.91100
N913        N  0.37942797  0.76086174  0.58951080    -0.03200
C914        C  0.45222516  0.76484732  0.59245776    -0.00600
C915        C  0.47897805  0.78335788  0.56057971    -0.23500
C916        C  0.42311574  0.78911109  0.53439885    -0.23700
C917        C  0.36319112  0.77439158  0.55135404    -0.00700
H918        H  0.53375646  0.79107193  0.55480836     0.13000
H919        H  0.42810257  0.80038069  0.50255276     0.13100
N920        N  0.57215753  0.75235719  0.62255056    -0.03200
C921        C  0.49854491  0.74957854  0.62173283    -0.00600
C922        C  0.47093197  0.73306480  0.65695501    -0.23500
C923        C  0.52665651  0.72779589  0.68326843    -0.23700
C924        C  0.58761853  0.74006731  0.66236996    -0.00700
H925        H  0.41614901  0.72597631  0.66462671     0.13000
H926        H  0.52237203  0.71733991  0.71602897     0.13100
N927        N  0.08591348  0.73042199  0.81789677    -0.03200
C928        C  0.01258290  0.72846634  0.81774543    -0.00600
C929        C  0.99031937  0.70430473  0.83667482    -0.23500
C930        C  0.04818053  0.69490973  0.85786988    -0.23700
C931        C  0.10572375  0.71223853  0.84785468    -0.00700
H932        H  0.93479316  0.69811881  0.84614382     0.13000
H933        H  0.04442912  0.68030801  0.88492247     0.13100
N934        N  0.89754771  0.74931286  0.85285890    -0.03200
C935        C  0.96956738  0.75163116  0.83873750    -0.00600
C936        C  0.00224437  0.76891018  0.87088832    -0.23500
C937        C  0.95165530  0.77444720  0.90803089    -0.23700
C938        C  0.88807045  0.76149584  0.89717489    -0.00700
H939        H  0.05970101  0.77309386  0.87194531     0.13000
H940        H  0.96233541  0.78472075  0.94144121     0.13100
N941        N  0.11390687  0.85792536  0.66731499    -0.27000
N942        N  0.12058291  0.84817973  0.62276501    -0.34900
C943        C  0.13202934  0.82185949  0.62250769     0.01300
C944        C  0.13405728  0.81469102  0.66897668     0.07300
C945        C  0.12275477  0.83806800  0.69646829    -0.05800
H946        H  0.14737269  0.80961735  0.59079305     0.08000
H947        H  0.12602541  0.84081118  0.73450398     0.09200
Cu948      Cu  0.14246620  0.87176600  0.56495326     0.44200
Cu949      Cu  0.10317438  0.89846649  0.68596613     0.42000
Cu950      Cu  0.13289794  0.94095311  0.58739297     0.43900
N951        N  0.21366538  0.89822727  0.53033491    -0.34400
N952        N  0.20906019  0.92424706  0.53815426    -0.28700
C953        C  0.27558660  0.93540279  0.53250710    -0.04800
C954        C  0.32567376  0.91537380  0.52443996     0.07400
C955        C  0.28362472  0.89223317  0.52009626     0.01200
H956        H  0.28760165  0.95524395  0.54689155     0.08900
H957        H  0.30316629  0.87229733  0.52266827     0.08000
N958        N  0.09873148  0.95493637  0.65522026    -0.35900
N959        N  0.09129437  0.93973516  0.69226334    -0.28100
C960        C  0.08081434  0.95550763  0.73217305    -0.03300
C961        C  0.08235125  0.98179339  0.71935609     0.05300
C962        C  0.09332744  0.98061439  0.67039470     0.03400
H963        H  0.07559379  0.94843615  0.76787785     0.08500
H964        H  0.10124282  0.99728867  0.64771847     0.07300
O965        O  0.21151477  0.79132788  0.71419985    -0.72700
O966        O  0.31465264  0.72540788  0.74272292    -0.73700
O967        O  0.33629986  0.76491031  0.67088256    -0.62300
O968        O  0.19108069  0.75184359  0.78397201    -0.70700
O969        O  0.12223351  0.72868790  0.73540965    -0.70300
O970        O  0.27124096  0.74003722  0.62248590    -0.61500
O971        O  0.24811527  0.70080959  0.69463130    -0.74000
O972        O  0.14752913  0.76762434  0.66329228    -0.72800
Cu973      Cu  0.26582668  0.75920843  0.72937484     1.04600
Cu974      Cu  0.19474743  0.73342600  0.67732376     1.04300
C975        C  0.16468318  0.78998506  0.68345097     0.93500
C976        C  0.29606233  0.70265750  0.72482092     0.92600
C977        C  0.32707763  0.75484567  0.62902358     0.84800
C978        C  0.13399094  0.73778529  0.77744074     0.91100
N979        N  0.35621897  0.63643758  0.75065352    -0.27000
N980        N  0.35635927  0.64913528  0.79286293    -0.34900
C981        C  0.33969059  0.67475664  0.78882666     0.01300
C982        C  0.32711184  0.67850001  0.74204464     0.07300
C983        C  0.33781895  0.65374149  0.71877642    -0.05800
H984        H  0.33058082  0.68900991  0.81863448     0.08000
H985        H  0.33025939  0.64851291  0.68188723     0.09200
Cu986      Cu  0.35650158  0.62971823  0.85606861     0.44200
Cu987      Cu  0.37579758  0.59541375  0.74109677     0.42000
Cu988      Cu  0.38045065  0.56028061  0.85071616     0.43900
N989        N  0.30086104  0.60462489  0.90321217    -0.34400
N990        N  0.30774301  0.57854890  0.89984749    -0.28700
C991        C  0.24353571  0.56687500  0.91272535    -0.04800
C992        C  0.19263247  0.58648909  0.92257603     0.07400
C993        C  0.23259548  0.61013143  0.91948308     0.01200
H994        H  0.23111994  0.54625932  0.90301448     0.08900
H995        H  0.20980173  0.62946836  0.91592178     0.08000
N996        N  0.40063275  0.54237466  0.78409383    -0.35900
N997        N  0.39682200  0.55463208  0.74400114    -0.28100
C998        C  0.40023291  0.53615830  0.70766189    -0.03300
C999        C  0.40516789  0.51122265  0.72601161     0.05300
C1000       C  0.40539514  0.51598846  0.77452207     0.03400
H1001       H  0.39460887  0.54039649  0.67098797     0.08500
H1002       H  0.40418473  0.50127460  0.80127071     0.07300
N1003       N  0.33242875  0.63243012  0.01571547    -0.27000
N1004       N  0.29894229  0.64209515  0.55581209    -0.34900
C1005       C  0.27424769  0.66628873  0.54906626     0.01300
C1006       C  0.29337679  0.67245645  0.00260869     0.07300
C1007       C  0.33193754  0.65089289  0.98255753    -0.05800
H1008       H  0.24194452  0.67808601  0.57564504     0.08000
H1009       H  0.35331528  0.64812310  0.94589454     0.09200
Cu1010     Cu  0.27715409  0.62138490  0.61660987     0.44200
Cu1011     Cu  0.35994371  0.59240243  0.00731327     0.42000
Cu1012     Cu  0.29396928  0.55163948  0.60978036     0.43900
N1013       N  0.23721398  0.59797786  0.67099814    -0.34400
N1014       N  0.24155932  0.57176893  0.66863504    -0.28700
C1015       C  0.20196989  0.56202846  0.70641628    -0.04800
C1016       C  0.17142396  0.58329415  0.73357007     0.07400
C1017       C  0.19527888  0.60572681  0.71009562     0.01200
H1018       H  0.19313808  0.54105118  0.71234594     0.08900
H1019       H  0.17979859  0.62608018  0.71916676     0.08000
N1020       N  0.33771926  0.53646749  0.54380210    -0.35900
N1021       N  0.35996151  0.55085125  0.00707971    -0.28100
C1022       C  0.37378004  0.53430502  0.96853311    -0.03300
C1023       C  0.35986523  0.50844030  0.98154966     0.05300
C1024       C  0.33778023  0.51052005  0.52952467     0.03400
H1025       H  0.38900482  0.54068701  0.93302793     0.08500
H1026       H  0.31688247  0.49455240  0.55143480     0.07300
N1027       N  0.14346643  0.85882602  0.91375380    -0.27000
N1028       N  0.16304287  0.85103800  0.86921421    -0.34900
C1029       C  0.18302323  0.82548918  0.86732497     0.01300
C1030       C  0.17456077  0.81641358  0.91275101     0.07300
C1031       C  0.14882324  0.83795765  0.94145847    -0.05800
H1032       H  0.20410935  0.81456515  0.83533890     0.08000
H1033       H  0.13889359  0.83881823  0.97981753     0.09200
Cu1034     Cu  0.17238098  0.87616717  0.81371258     0.44200
Cu1035     Cu  0.12156734  0.89882879  0.93325540     0.42000
Cu1036     Cu  0.17678867  0.94610352  0.83928236     0.43900
N1037       N  0.21755875  0.90289664  0.76658504    -0.34400
N1038       N  0.22332525  0.92879166  0.77633876    -0.28700
C1039       C  0.27154199  0.93948907  0.74383006    -0.04800
C1040       C  0.29749450  0.91908271  0.71271567     0.07400
C1041       C  0.26142122  0.89632422  0.72791846     0.01200
H1042       H  0.29129726  0.95993130  0.74556320     0.08900
H1043       H  0.27219005  0.87604426  0.71508473     0.08000
N1044       N  0.13373975  0.95709127  0.90734419    -0.35900
N1045       N  0.11472276  0.94046698  0.94138646    -0.28100
C1046       C  0.09792639  0.95489841  0.98218787    -0.03300
C1047       C  0.10720358  0.98166377  0.97342441     0.05300
C1048       C  0.12915757  0.98227903  0.92554730     0.03400
H1049       H  0.08291600  0.94648271  0.51612113     0.08500
H1050       H  0.14666475  0.99966350  0.90622066     0.07300
O1051       O  0.24527583  0.75928070  0.53001330    -0.72700
O1052       O  0.12577385  0.72565896  0.92794117    -0.73700
O1053       O  0.21230136  0.70725709  0.49888485    -0.62300
O1054       O  0.15776924  0.77909310  0.96127627    -0.70700
O1055       O  0.24923572  0.77836847  0.90516909    -0.70300
O1056       O  0.30728284  0.70628223  0.94539826    -0.61500
O1057       O  0.22062376  0.72517204  0.87436265    -0.74000
O1058       O  0.33699024  0.75967761  0.97418148    -0.72800
Cu1059     Cu  0.18155583  0.74270544  0.98113187     1.04600
Cu1060     Cu  0.28183212  0.74236638  0.92292330     1.04300
C1061       C  0.31178087  0.76425652  0.51729843     0.93500
C1062       C  0.15357174  0.72065870  0.88531186     0.92600
C1063       C  0.26976958  0.69617197  0.98043100     0.84800
C1064       C  0.19485359  0.79010020  0.92719825     0.91100
O1065       O  0.76382729  0.74899945  0.92593171    -0.72700
O1066       O  0.60783454  0.74960769  0.03929245    -0.73700
O1067       O  0.66654045  0.78666304  0.96856143    -0.62300
O1068       O  0.70259749  0.71118211  0.99378866    -0.70700
O1069       O  0.78110479  0.72457842  0.54575538    -0.70300
O1070       O  0.74871314  0.80083332  0.01755430    -0.61500
O1071       O  0.68880825  0.76425457  0.58837177    -0.74000
O1072       O  0.84163062  0.76223721  0.97809821    -0.72800
Cu1073     Cu  0.68199324  0.74864401  0.98035717     1.04600
Cu1074     Cu  0.76767406  0.76339589  0.03420385     1.04300
C1075       C  0.82769174  0.75708983  0.93493620     0.93500
C1076       C  0.62434316  0.75622577  0.58180036     0.92600
C1077       C  0.70665064  0.80522209  0.98527337     0.84800
C1078       C  0.74521821  0.70595337  0.02502877     0.91100
N1079       N  0.75444568  0.86878298  0.93481064    -0.27000
N1080       N  0.70072315  0.86088994  0.90923101    -0.34900
C1081       C  0.67242363  0.83783138  0.92528109     0.01300
C1082       C  0.71010574  0.83095138  0.96297837     0.07300
C1083       C  0.76305178  0.85059099  0.96707135    -0.05800
H1084       H  0.62984733  0.82632788  0.90927465     0.08000
H1085       H  0.80523558  0.85145323  0.99139646     0.09200
Cu1086     Cu  0.67321347  0.88107298  0.85168609     0.44200
Cu1087     Cu  0.80723087  0.90523840  0.92696132     0.42000
Cu1088     Cu  0.74578365  0.94776514  0.83628281     0.43900
N1089       N  0.65213422  0.90390712  0.79589061    -0.34400
N1090       N  0.67626060  0.92862527  0.79020519    -0.28700
C1091       C  0.64784412  0.93794221  0.75192399    -0.04800
C1092       C  0.60468806  0.91788552  0.73267418     0.07400
C1093       C  0.60913119  0.89666942  0.76133657     0.01200
H1094       H  0.65770657  0.95775644  0.73918536     0.08900
H1095       H  0.58147951  0.87751617  0.75811555     0.08000
N1096       N  0.80739440  0.96117759  0.89178717    -0.35900
N1097       N  0.82938008  0.94570609  0.92409864    -0.28100
C1098       C  0.85548319  0.96103577  0.95942805    -0.03300
C1099       C  0.84988197  0.98737765  0.94907283     0.05300
C1100       C  0.81981276  0.98677630  0.90575065     0.03400
H1101       H  0.87133479  0.95362324  0.49223119     0.08500
H1102       H  0.80073640  0.00367482  0.88846899     0.07300
N1103       N  0.71966953  0.63606779  0.05103917    -0.27000
N1104       N  0.75986211  0.64479415  0.58524301    -0.34900
C1105       C  0.77895800  0.67041873  0.57934468     0.01300
C1106       C  0.74905614  0.67842910  0.03945195     0.07300
C1107       C  0.71155820  0.65618531  0.02230043    -0.05800
H1108       H  0.80875054  0.68270143  0.60393784     0.08000
H1109       H  0.67843275  0.65505303  0.99244634     0.09200
Cu1110     Cu  0.78098912  0.62224757  0.64058897     0.44200
Cu1111     Cu  0.67736177  0.59717713  0.04850298     0.42000
Cu1112     Cu  0.72948915  0.55325381  0.64210001     0.43900
N1113       N  0.80666446  0.59780127  0.69217529    -0.34400
N1114       N  0.79145797  0.57200068  0.69266371    -0.28700
C1115       C  0.82584735  0.56165364  0.72758887    -0.04800
C1116       C  0.86364260  0.58222465  0.74985142     0.07400
C1117       C  0.84962598  0.60474421  0.72667821     0.01200
H1118       H  0.82566625  0.54072540  0.73488820     0.08900
H1119       H  0.87281743  0.62451520  0.73238006     0.08000
N1120       N  0.67288188  0.54072209  0.58402798    -0.35900
N1121       N  0.65405536  0.55636144  0.05092503    -0.28100
C1122       C  0.62725247  0.54106291  0.01574649    -0.03300
C1123       C  0.63017811  0.51468118  0.02673230     0.05300
C1124       C  0.65844771  0.51519564  0.57054860     0.03400
H1125       H  0.61114851  0.54846822  0.98306455     0.08500
H1126       H  0.67404863  0.49818258  0.58904959     0.07300
O1127       O  0.93821245  0.55914903  0.79883728    -0.72700
O1128       O  0.09535863  0.56156934  0.89009366    -0.73700
O1129       O  0.93869164  0.56001870  0.89915861    -0.62300
O1130       O  0.09293729  0.56029495  0.78991594    -0.70700
O1131       O  0.09370691  0.60452512  0.79429507    -0.70300
O1132       O  0.93838111  0.60424334  0.90160651    -0.61500
O1133       O  0.09150937  0.60574878  0.89403328    -0.74000
O1134       O  0.94125348  0.60339829  0.80227094    -0.72800
Cu1135     Cu  0.01626800  0.55862050  0.84488989     1.04600
Cu1136     Cu  0.01618705  0.60591091  0.84853211     1.04300
C1137       C  0.91616316  0.58129932  0.78570597     0.93500
C1138       C  0.12109119  0.58429944  0.90371019     0.92600
C1139       C  0.91103363  0.58205721  0.91519337     0.84800
C1140       C  0.11723790  0.58258997  0.77472335     0.91100
N1141       N  0.64980959  0.63188234  0.80942435    -0.27000
N1142       N  0.65127917  0.64310188  0.85277153    -0.34900
C1143       C  0.66444212  0.66939832  0.84970061     0.01300
C1144       C  0.67306885  0.67503780  0.80218981     0.07300
C1145       C  0.66390063  0.65080579  0.77750358    -0.05800
H1146       H  0.67400775  0.68295641  0.87966194     0.08000
H1147       H  0.66920153  0.64708061  0.73929641     0.09200
Cu1148     Cu  0.66058140  0.62166086  0.91245378     0.44200
Cu1149     Cu  0.63231585  0.59095643  0.79676554     0.42000
Cu1150     Cu  0.64778442  0.55173955  0.89812141     0.43900
N1151       N  0.72873342  0.59700000  0.94327399    -0.34400
N1152       N  0.72479752  0.57083318  0.93708629    -0.28700
C1153       C  0.79110260  0.56092863  0.93850494    -0.04800
C1154       C  0.84029246  0.58193257  0.94297239     0.07400
C1155       C  0.79784437  0.60436329  0.94857423     0.01200
H1156       H  0.80464512  0.54100714  0.92483727     0.08900
H1157       H  0.81774959  0.62459055  0.94408322     0.08000
N1158       N  0.60929887  0.53617206  0.83583951    -0.35900
N1159       N  0.60742787  0.55013960  0.79751964    -0.28100
C1160       C  0.59196999  0.53346270  0.76072819    -0.03300
C1161       C  0.58402130  0.50784390  0.77679089     0.05300
C1162       C  0.59495639  0.51036695  0.82459652     0.03400
H1163       H  0.58973948  0.53938586  0.72457552     0.08500
H1164       H  0.59728135  0.49440053  0.84864115     0.07300
N1165       N  0.84588419  0.86321559  0.69515373    -0.27000
N1166       N  0.84567950  0.85124017  0.65235062    -0.34900
C1167       C  0.83259216  0.82499927  0.65658446     0.01300
C1168       C  0.82261362  0.81998222  0.70436358     0.07300
C1169       C  0.83095462  0.84471504  0.72797728    -0.05800
H1170       H  0.82450042  0.81096506  0.62703995     0.08000
H1171       H  0.82484822  0.84900152  0.76602786     0.09200
Cu1172     Cu  0.84027188  0.87184412  0.59122816     0.44200
Cu1173     Cu  0.86350005  0.90476571  0.70393321     0.42000
Cu1174     Cu  0.86313077  0.94133113  0.59366981     0.43900
N1175       N  0.78018767  0.89604054  0.55327571    -0.34400
N1176       N  0.78849616  0.92216968  0.55379494    -0.28700
C1177       C  0.72508304  0.93303731  0.54639940    -0.04800
C1178       C  0.67352122  0.91278735  0.54274686     0.07400
C1179       C  0.71131913  0.88969637  0.54582946     0.01200
H1180       H  0.71357333  0.95382196  0.55480494     0.08900
H1181       H  0.68711315  0.87038300  0.55343376     0.08000
N1182       N  0.89018325  0.95827312  0.65760694    -0.35900
N1183       N  0.88677622  0.94588140  0.69808028    -0.28100
C1184       C  0.89481741  0.96430251  0.73374974    -0.03300
C1185       C  0.90290782  0.98924270  0.71462204     0.05300
C1186       C  0.90000066  0.98457113  0.66634397     0.03400
H1187       H  0.89133712  0.96001466  0.77105331     0.08500
H1188       H  0.89981105  0.99933153  0.63976703     0.07300
O1189       O  0.63756912  0.75653196  0.73212120    -0.72700
O1190       O  0.78228939  0.75820948  0.82954129    -0.73700
O1191       O  0.74924584  0.79352075  0.75865301    -0.62300
O1192       O  0.67283846  0.72224994  0.80324772    -0.70700
O1193       O  0.74712142  0.70130788  0.74867130    -0.70300
O1194       O  0.82348302  0.77258902  0.70414245    -0.61500
O1195       O  0.85924110  0.73747566  0.77666897    -0.74000
O1196       O  0.71218986  0.73578918  0.67749396    -0.72800
Cu1197     Cu  0.70782885  0.75842302  0.78249562     1.04600
Cu1198     Cu  0.78861384  0.73616448  0.72489766     1.04300
C1199       C  0.65009458  0.74528315  0.69067494     0.93500
C1200       C  0.84364761  0.74761894  0.81881072     0.92600
C1201       C  0.79796402  0.79422471  0.72385077     0.84800
C1202       C  0.69826274  0.70068579  0.78336343     0.91100
O1203       O  0.41413004  0.89428268  0.56416765    -0.72700
O1204       O  0.53669023  0.89625260  0.67410722    -0.73700
O1205       O  0.38697112  0.89692891  0.66279645    -0.62300
O1206       O  0.56448448  0.89356140  0.57473423    -0.70700
O1207       O  0.57138616  0.93773600  0.57436950    -0.70300
O1208       O  0.39276759  0.94116422  0.66636312    -0.61500
O1209       O  0.54579122  0.94038962  0.67450594    -0.74000
O1210       O  0.41682308  0.93851245  0.56600753    -0.72800
Cu1211     Cu  0.47562623  0.89382445  0.61859669     1.04600
Cu1212     Cu  0.48201648  0.94108891  0.61986988     1.04300
C1213       C  0.39128912  0.91612520  0.55053682     0.93500
C1214       C  0.56070093  0.91833686  0.69170077     0.92600
C1215       C  0.36173430  0.91928787  0.67876082     0.84800
C1216       C  0.59833456  0.91492359  0.56289154     0.91100
loop_ 
_geom_bond_atom_site_label_1 
_geom_bond_atom_site_label_2 
_geom_bond_distance 
_geom_bond_site_symmetry_2 
_ccdc_geom_bond_type 
N1            C5   1.363       .  A
N1            C2   1.368       .  A
N1           C64   1.443       .  S
C2            C3   1.391       .  A
C2            C9   1.504       .  S
C3            C4   1.371       .  A
C3            H6   1.083       .  S
C4            C5   1.377       .  A
C4            H7   1.083       .  S
C5          C226   1.484       .  S
N8           C12   1.351       .  A
N8            C9   1.365       .  A
N8          C102   1.454       .  S
C9           C10   1.393       .  A
C10          C11   1.376       .  A
C10          H13   1.083       .  S
C11          C12   1.378       .  A
C11          H14   1.082       .  S
C12         C239   1.478       .  S
N15          C19   1.364       .  A
N15          C16   1.367   1_455  A
N15          C63   1.443       .  S
C16          C17   1.392       .  A
C16          C23   1.504       .  S
C17          C18   1.372   1_655  A
C17          H20   1.083       .  S
C18          C19   1.377       .  A
C18          H21   1.083       .  S
C19         C225   1.486       .  S
N22          C26   1.351       .  A
N22          C23   1.364       .  A
N22         C101   1.453       .  S
C23          C24   1.393       .  A
C24          C25   1.377       .  A
C24          H27   1.083   1_655  S
C25          C26   1.378       .  A
C25          H28   1.082       .  S
C26         C240   1.479       .  S
N29          C33   1.350       .  A
N29          N30   1.320       .  A
N29         Cu37   2.087       .  S
N30          C31   1.341       .  A
N30         Cu36   2.055       .  S
C31          C32   1.380       .  A
C31          H34   1.082       .  S
C32          C33   1.387       .  A
C32          C65   1.469       .  S
C33         H643   1.082   1_554  S
H35         C641   1.082       .  S
Cu36         N39   2.055       .  S
Cu37         N47   2.089       .  S
Cu38         N40   2.094       .  S
Cu38         N46   2.095       .  S
N39          C43   1.339       .  A
N39          N40   1.320       .  A
N40          C41   1.353       .  A
C41          C42   1.392       .  A
C41          H44   1.082       .  S
C42          C43   1.380       .  A
C42         C165   1.476       .  S
C43          H45   1.082       .  S
N46          C50   1.347       .  A
N46          N47   1.326       .  A
N47         C656   1.346       .  A
C48         N655   1.346       .  A
C48          C49   1.381       .  A
C48          H51   1.080       .  S
C49         C658   1.383       .  A
C49         C439   1.472   1_545  S
C50         C657   1.383       .  A
C50          H52   1.081   1_545  S
O53          C63   1.282       .  A
O53        Cu669   2.024   1_554  S
O54          C64   1.279       .  A
O54         Cu61   2.027       .  S
O55         C673   1.277       .  A
O55         Cu61   2.013       .  S
O56          C66   1.276       .  A
O56         Cu61   1.996       .  S
O57         C674   1.278       .  A
O57         Cu62   2.018   1_556  S
O58          C65   1.278       .  A
O58         Cu62   2.005       .  S
O59          C64   1.280       .  A
O59        Cu670   2.017       .  S
O60          C63   1.278       .  A
O60         Cu62   2.022       .  S
Cu61        O661   2.024       .  S
Cu61       Cu670   2.372       .  S
Cu62        O667   2.017   1_554  S
Cu62       Cu669   2.372   1_554  S
C65         O663   1.277   1_554  A
C66          C70   1.468       .  S
C66         O665   1.278       .  A
N67          C71   1.349       .  A
N67          N68   1.320       .  A
N67         Cu75   2.084       .  S
N68          C69   1.341       .  A
N68         Cu74   2.057       .  S
C69          C70   1.381       .  A
C69          H72   1.082       .  S
C70          C71   1.386       .  A
C71         H681   1.081       .  S
H73         C679   1.081       .  S
Cu74         N77   2.057       .  S
Cu75         N85   2.087       .  S
Cu76         N78   2.084       .  S
Cu76         N84   2.087       .  S
N77          C81   1.338       .  A
N77          N78   1.321       .  A
N78          C79   1.352       .  A
C79          C80   1.389       .  A
C79          H82   1.082       .  S
C80          C81   1.379       .  A
C80         C302   1.470       .  S
C81          H83   1.082       .  S
N84          C88   1.347       .  A
N84          N85   1.326       .  A
N85          C86   1.345       .  A
C86          C87   1.380       .  A
C86         H697   1.080       .  S
C87          C88   1.383       .  A
C87         C415   1.471       .  S
C88          H90   1.082       .  S
H89         C694   1.080       .  S
O91         C101   1.283       .  A
O91         Cu99   2.034       .  S
O92         C102   1.282       .  A
O92        Cu707   2.051       .  S
O93         C103   1.278       .  A
O93         Cu99   2.000       .  S
O94         C712   1.274   1_554  A
O94         Cu99   2.000       .  S
O95         C104   1.278       .  A
O95        Cu100   1.999       .  S
O96         C711   1.274       .  A
O96        Cu100   1.996       .  S
O97         C102   1.282       .  A
O97        Cu100   2.026       .  S
O98         C101   1.281       .  A
O98        Cu708   2.045   1_554  S
Cu99        O700   2.051   1_554  S
Cu99       Cu708   2.371   1_554  S
Cu100       O706   2.045       .  S
Cu100      Cu707   2.371       .  S
C103        C108   1.459       .  S
C103        O704   1.274   1_554  A
C104        C132   1.461       .  S
C104        O702   1.274       .  A
N105        C109   1.348   1_554  A
N105        N106   1.319       .  A
N105       Cu113   2.079       .  S
N106        C107   1.337       .  A
N106       Cu112   2.034       .  S
C107        C108   1.375       .  A
C107        H110   1.082       .  S
C108        C109   1.386   1_554  A
C109        H719   1.081       .  S
H111        C717   1.081       .  S
Cu112       N115   2.031       .  S
Cu113       N123   2.083       .  S
Cu114       N116   2.080       .  S
Cu114       N122   2.083       .  S
N115        C119   1.336       .  A
N115        N116   1.319       .  A
N116        C117   1.349       .  A
C117        C118   1.388       .  A
C117        H120   1.082       .  S
C118        C119   1.375       .  A
C118        C164   1.463       .  S
C119        H121   1.082       .  S
N122        C126   1.345       .  A
N122        N123   1.326       .  A
N123        C732   1.344   1_554  A
C124        N731   1.344       .  A
C124        C125   1.379       .  A
C124        H127   1.078       .  S
C125        C734   1.382       .  A
C125        C491   1.469   1_545  S
C126        C733   1.382   1_554  A
C126        H128   1.082   1_545  S
N129        C133   1.350       .  A
N129        N130   1.319       .  A
N129       Cu137   2.086       .  S
N130        C131   1.337       .  A
N130       Cu136   2.031       .  S
C131        C132   1.374       .  A
C131        H134   1.082       .  S
C132        C133   1.387       .  A
C133        H743   1.081       .  S
H135        C741   1.081   1_554  S
Cu136       N139   2.028       .  S
Cu137       N147   2.090       .  S
Cu138       N140   2.087       .  S
Cu138       N146   2.090       .  S
N139        C143   1.336       .  A
N139        N140   1.319       .  A
N140        C141   1.351       .  A
C141        C142   1.391       .  A
C141        H144   1.082       .  S
C142        C143   1.375       .  A
C142        C303   1.466       .  S
C143        H145   1.082       .  S
N146        C150   1.345       .  A
N146        N147   1.327       .  A
N147        C148   1.347       .  A
C148        C149   1.380       .  A
C148        H759   1.080       .  S
C149        C150   1.381       .  A
C149        C515   1.471       .  S
C150        H152   1.080       .  S
H151        C756   1.080       .  S
O153        C163   1.276       .  A
O153       Cu161   1.984       .  S
O154        C164   1.277       .  A
O154       Cu161   1.992       .  S
O155        C165   1.276       .  A
O155       Cu161   1.994       .  S
O156        C166   1.274       .  A
O156       Cu161   1.979       .  S
O157        C166   1.282       .  A
O157       Cu162   2.030       .  S
O158        C165   1.281       .  A
O158       Cu162   2.041       .  S
O159        C164   1.276       .  A
O159       Cu162   2.010       .  S
O160        C163   1.278       .  A
O160       Cu162   2.012       .  S
Cu161      Cu162   2.374       .  S
C163        C180   1.467       .  S
C166        C256   1.473       .  S
N167        C171   1.348       .  A
N167        N168   1.323       .  A
N167       Cu175   2.090       .  S
N168        C169   1.346       .  A
N168       Cu174   2.068       .  S
C169        C170   1.381       .  A
C169        H172   1.082       .  S
C170        C171   1.386       .  A
C170        C228   1.470       .  S
C171        H173   1.082       .  S
Cu174       N177   2.066       .  S
Cu175       N185   2.090       .  S
Cu176       N178   2.058       .  S
Cu176       N184   2.061       .  S
N177        C181   1.341       .  A
N177        N178   1.319       .  A
N178        C179   1.342       .  A
C179        C180   1.383       .  A
C179        H182   1.083       .  S
C180        C181   1.384       .  A
C181        H183   1.083       .  S
N184        C188   1.345       .  A
N184        N185   1.323       .  A
N185        C186   1.345       .  A
C186        C187   1.386       .  A
C186        H189   1.082       .  S
C187        C188   1.381       .  A
C187        C353   1.472   1_545  S
C188        H190   1.082   1_545  S
N191        C195   1.351       .  A
N191        N192   1.324       .  A
N191       Cu199   2.106       .  S
N192        C193   1.344       .  A
N192       Cu198   2.063       .  S
C193        C194   1.378       .  A
C193        H196   1.082       .  S
C194        C195   1.389       .  A
C194        C227   1.472       .  S
C195        H197   1.082       .  S
Cu198       N201   2.063       .  S
Cu199       N209   2.106       .  S
Cu200       N202   2.054       .  S
Cu200       N208   2.056       .  S
N201        C205   1.342       .  A
N201        N202   1.318       .  A
N202        C203   1.343       .  A
C203        C204   1.385       .  A
C203        H206   1.083       .  S
C204        C205   1.384       .  A
C204        C304   1.468       .  S
C205        H207   1.083       .  S
N208        C212   1.342       .  A
N208        N209   1.324       .  A
N209        C210   1.349       .  A
C210        C211   1.390       .  A
C210        H213   1.082       .  S
C211        C212   1.377       .  A
C211        C391   1.474       .  S
C212        H214   1.081       .  S
O215        C225   1.283       .  A
O215       Cu223   2.040       .  S
O216        C226   1.277       .  A
O216       Cu223   2.028       .  S
O217        C227   1.279       .  A
O217       Cu223   2.026       .  S
O218        C228   1.278       .  A
O218       Cu223   2.017       .  S
O219        C228   1.278       .  A
O219       Cu224   2.018       .  S
O220        C227   1.277       .  A
O220       Cu224   2.011       .  S
O221        C226   1.283       .  A
O221       Cu224   2.038       .  S
O222        C225   1.277       .  A
O222       Cu224   2.031       .  S
Cu223      Cu224   2.373       .  S
O229        C239   1.280       .  A
O229       Cu237   2.018       .  S
O230        C240   1.276       .  A
O230       Cu237   2.002       .  S
O231        C241   1.277       .  A
O231       Cu237   2.014       .  S
O232        C242   1.280       .  A
O232       Cu237   2.023       .  S
O233        C242   1.277       .  A
O233       Cu238   2.015       .  S
O234        C241   1.280       .  A
O234       Cu238   2.025       .  S
O235        C240   1.280       .  A
O235       Cu238   2.018       .  S
O236        C239   1.276       .  A
O236       Cu238   2.002       .  S
Cu237      Cu238   2.372       .  S
C241        C246   1.475       .  S
C242        C270   1.475       .  S
N243        C247   1.352       .  A
N243        N244   1.323       .  A
N243       Cu251   2.105       .  S
N244        C245   1.344       .  A
N244       Cu250   2.076       .  S
C245        C246   1.383       .  A
C245        H248   1.082       .  S
C246        C247   1.391       .  A
C247        H249   1.082       .  S
Cu250       N253   2.076       .  S
Cu251       N261   2.106       .  S
Cu252       N254   2.051       .  S
Cu252       N260   2.048       .  S
N253        C257   1.342       .  A
N253        N254   1.317       .  A
N254        C255   1.344       .  A
C255        C256   1.385       .  A
C255        H258   1.082       .  S
C256        C257   1.390       .  A
C257        H259   1.082       .  S
N260        C264   1.341       .  A
N260        N261   1.323       .  A
N261        C262   1.349       .  A
C262        C263   1.390       .  A
C262        H265   1.082       .  S
C263        C264   1.376       .  A
C263        C577   1.473   1_545  S
C264        H266   1.081       .  S
N267        C271   1.350       .  A
N267        N268   1.323       .  A
N267       Cu275   2.098       .  S
N268        C269   1.344       .  A
N268       Cu274   2.077       .  S
C269        C270   1.384       .  A
C269        H272   1.082       .  S
C270        C271   1.389       .  A
C271        H273   1.082       .  S
Cu274       N277   2.078       .  S
Cu275       N285   2.098       .  S
Cu276       N278   2.054       .  S
Cu276       N284   2.057       .  S
N277        C281   1.342       .  A
N277        N278   1.318       .  A
N278        C279   1.343       .  A
C279        C280   1.384       .  A
C279        H282   1.082       .  S
C280        C281   1.388       .  A
C280        C301   1.470       .  S
C281        H283   1.082       .  S
N284        C288   1.343       .  A
N284        N285   1.323       .  A
N285        C286   1.348       .  A
C286        C287   1.388       .  A
C286        H289   1.082       .  S
C287        C288   1.379       .  A
C287        C553   1.473       .  S
C288        H290   1.082       .  S
O291        C301   1.274       .  A
O291       Cu299   1.977       .  S
O292        C302   1.275       .  A
O292       Cu299   1.988   1_455  S
O293        C303   1.278       .  A
O293       Cu299   1.998       .  S
O294        C304   1.276       .  A
O294       Cu299   1.989   1_455  S
O295        C304   1.278       .  A
O295       Cu300   2.008   1_455  S
O296        C303   1.276       .  A
O296       Cu300   2.012       .  S
O297        C302   1.280       .  A
O297       Cu300   2.034   1_455  S
O298        C301   1.281       .  A
O298       Cu300   2.023       .  S
Cu299      Cu300   2.374       .  S
N305        C309   1.361       .  A
N305        C306   1.368       .  A
N305        C369   1.454       .  S
C306        C307   1.381       .  A
C306        C313   1.492       .  S
C307        C308   1.367       .  A
C307        H310   1.080       .  S
C308        C309   1.384       .  A
C308        H311   1.083       .  S
C309        C453   1.473       .  S
N312        C316   1.364       .  A
N312        C313   1.370       .  A
N312        C468   1.457       .  S
C313        C314   1.384       .  A
C314        C315   1.361       .  A
C314        H317   1.076       .  S
C315        C316   1.376       .  A
C315        H318   1.083       .  S
C316        C591   1.472       .  S
N319        C323   1.354       .  A
N319        C320   1.361       .  A
N319        C370   1.446       .  S
C320        C321   1.391   1_455  A
C320        C327   1.497   1_455  S
C321        C322   1.376   1_655  A
C321        H324   1.083       .  S
C322        C323   1.379       .  A
C322        H325   1.083       .  S
C323        C454   1.475       .  S
N326        C330   1.365       .  A
N326        C327   1.364       .  A
N326        C592   1.441       .  S
C327        C328   1.389   1_655  A
C328        C329   1.369   1_455  A
C328        H331   1.083       .  S
C329        C330   1.381       .  A
C329        H332   1.083       .  S
C330        C467   1.500       .  S
N333        C337   1.347       .  A
N333        N334   1.323       .  A
N333       Cu341   2.089       .  S
N334        C335   1.345       .  A
N334       Cu340   2.072       .  S
C335        C336   1.382       .  A
C335        H338   1.082       .  S
C336        C337   1.386       .  A
C336        C367   1.469       .  S
C337        H339   1.082       .  S
Cu340       N343   2.071       .  S
Cu341       N351   2.089       .  S
Cu342       N344   2.060       .  S
Cu342       N350   2.060       .  S
N343        C347   1.343       .  A
N343        N344   1.319       .  A
N344        C345   1.342       .  A
C345        C346   1.385       .  A
C345        H348   1.083       .  S
C346        C347   1.389       .  A
C346        C605   1.473       .  S
C347        H349   1.082       .  S
N350        C354   1.343       .  A
N350        N351   1.322       .  A
N351        C352   1.348       .  A
C352        C353   1.387       .  A
C352        H355   1.082       .  S
C353        C354   1.379       .  A
C354        H356   1.080       .  S
O357        C367   1.276       .  A
O357       Cu365   2.008       .  S
O358        C368   1.278       .  A
O358       Cu365   2.012       .  S
O359        C369   1.285       .  A
O359       Cu365   2.045       .  S
O360        C370   1.278       .  A
O360       Cu365   2.026       .  S
O361        C370   1.284       .  A
O361       Cu366   2.051       .  S
O362        C369   1.280       .  A
O362       Cu366   2.044       .  S
O363        C368   1.280       .  A
O363       Cu366   2.038       .  S
O364        C367   1.279       .  A
O364       Cu366   2.021       .  S
Cu365      Cu366   2.370       .  S
C368        C374   1.478       .  S
N371        C375   1.352       .  A
N371        N372   1.323       .  A
N371       Cu379   2.103       .  S
N372        C373   1.345       .  A
N372       Cu378   2.077       .  S
C373        C374   1.383       .  A
C373        H376   1.082       .  S
C374        C375   1.388       .  A
C375        H377   1.081       .  S
Cu378       N381   2.073       .  S
Cu379       N389   2.104       .  S
Cu380       N382   2.050       .  S
Cu380       N388   2.053       .  S
N381        C385   1.340       .  A
N381        N382   1.318       .  A
N382        C383   1.344       .  A
C383        C384   1.384       .  A
C383        H386   1.082       .  S
C384        C385   1.387       .  A
C384        C530   1.469       .  S
C385        H387   1.082       .  S
N388        C392   1.344       .  A
N388        N389   1.324       .  A
N389        C390   1.347       .  A
C390        C391   1.388       .  A
C390        H393   1.082       .  S
C391        C392   1.379       .  A
C392        H394   1.082       .  S
N395        C399   1.352       .  A
N395       N1004   1.321       .  A
N395       Cu403   2.086       .  S
N396        C397   1.339       .  A
N396       N1003   1.321       .  A
N396       Cu402   2.058       .  S
C397       C1006   1.378       .  A
C397        H400   1.082       .  S
C398        C399   1.384       .  A
C398       C1005   1.378       .  A
C398        C455   1.467       .  S
C399        H401   1.080       .  S
Cu402       N405   2.058       .  S
Cu403       N413   2.088       .  S
Cu404       N406   2.083       .  S
Cu404       N412   2.084       .  S
N405        C409   1.342       .  A
N405        N406   1.320       .  A
N406        C407   1.349       .  A
C407        C408   1.388       .  A
C407        H410   1.082       .  S
C408        C409   1.381       .  A
C408        C532   1.472       .  S
C409        H411   1.082       .  S
N412        C416   1.346       .  A
N412       N1021   1.326       .  A
N413        C414   1.347       .  A
N413       N1020   1.326       .  A
C414        C415   1.381       .  A
C414        H417   1.081       .  S
C415       C1024   1.382       .  A
C416       C1023   1.382   1_554  A
C416        H418   1.082       .  S
N419        C423   1.350       .  A
N419        N420   1.322       .  A
N419       Cu427   2.099       .  S
N420        C421   1.343       .  A
N420       Cu426   2.055       .  S
C421        C422   1.378       .  A
C421        H424   1.082       .  S
C422        C423   1.389       .  A
C422        C456   1.471       .  S
C423        H425   1.082       .  S
Cu426       N429   2.052       .  S
Cu427       N437   2.100       .  S
Cu428       N430   2.070       .  S
Cu428       N436   2.072       .  S
N429        C433   1.338       .  A
N429        N430   1.320       .  A
N430        C431   1.348       .  A
C431        C432   1.385       .  A
C431        H434   1.082       .  S
C432        C433   1.379       .  A
C432        C607   1.465       .  S
C433        H435   1.082       .  S
N436        C440   1.344       .  A
N436        N437   1.325       .  A
N437        C438   1.348       .  A
C438        C439   1.384       .  A
C438       H1049   1.079       .  S
C439        C440   1.380       .  A
C440        H442   1.082       .  S
H441       C1046   1.079   1_554  S
O443        C453   1.277       .  A
O443      Cu1059   2.024   1_554  S
O444        C454   1.284       .  A
O444       Cu451   2.035       .  S
O445       C1063   1.275       .  A
O445      Cu1059   1.985       .  S
O446        C456   1.276       .  A
O446       Cu451   2.010       .  S
O447        C456   1.280       .  A
O447       Cu452   2.023       .  S
O448        C455   1.279       .  A
O448       Cu452   2.031       .  S
O449        C454   1.273       .  A
O449       Cu452   2.001       .  S
O450       C1061   1.279       .  A
O450       Cu452   1.993       .  S
Cu451      O1051   2.024       .  S
Cu451      O1053   1.985       .  S
Cu451      Cu452   2.375       .  S
C453       O1058   1.279   1_554  A
C455       O1053   1.275       .  A
O457        C467   1.283       .  A
O457       Cu465   2.067       .  S
O458       C1076   1.288       .  A
O458       Cu465   2.067       .  S
O459        C469   1.274       .  A
O459       Cu465   1.989       .  S
O460        C470   1.274       .  A
O460       Cu465   1.992       .  S
O461       C1078   1.280       .  A
O461      Cu1074   2.019       .  S
O462        C469   1.279       .  A
O462       Cu466   2.009       .  S
O463        C468   1.277       .  A
O463      Cu1074   2.024       .  S
O464        C467   1.279       .  A
O464       Cu466   2.005       .  S
Cu465      Cu466   2.369       .  S
Cu466      O1069   2.019       .  S
Cu466      O1071   2.024       .  S
C468       O1066   1.288       .  A
C469        C474   1.464       .  S
C470        C498   1.467       .  S
C470       O1069   1.280       .  A
N471        C475   1.344       .  A
N471        N472   1.320       .  A
N471       Cu479   2.068       .  S
N472        C473   1.344       .  A
N472       Cu478   2.064       .  S
C473        C474   1.384       .  A
C473        H476   1.082       .  S
C474        C475   1.381       .  A
C475        H477   1.082       .  S
Cu478       N481   2.064       .  S
Cu479       N489   2.069       .  S
Cu480       N482   2.090       .  S
Cu480       N488   2.090       .  S
N481        C485   1.341       .  A
N481        N482   1.322       .  A
N482        C483   1.351       .  A
C483        C484   1.388       .  A
C483        H486   1.082       .  S
C484        C485   1.379       .  A
C484        C606   1.471       .  S
C485        H487   1.082       .  S
N488        C492   1.346       .  A
N488        N489   1.324       .  A
N489        C490   1.344       .  A
C490        C491   1.379       .  A
C490       H1101   1.081       .  S
C491        C492   1.385       .  A
C492        H494   1.082   1_565  S
H493       C1098   1.081       .  S
N495        C499   1.347       .  A
N495       N1104   1.320       .  A
N495       Cu503   2.087       .  S
N496        C497   1.342       .  A
N496       N1103   1.320       .  A
N496       Cu502   2.046       .  S
C497       C1106   1.378       .  A
C497        H500   1.082       .  S
C498        C499   1.389       .  A
C498       C1105   1.378       .  A
C499        H501   1.082       .  S
Cu502       N505   2.046       .  S
Cu503       N513   2.089       .  S
Cu504       N506   2.080       .  S
Cu504       N512   2.082       .  S
N505        C509   1.336       .  A
N505        N506   1.321       .  A
N506        C507   1.350       .  A
C507        C508   1.388       .  A
C507        H510   1.082       .  S
C508        C509   1.377       .  A
C508        C529   1.465       .  S
C509        H511   1.082       .  S
N512        C516   1.346       .  A
N512       N1121   1.325       .  A
N513        C514   1.345       .  A
N513       N1120   1.325       .  A
C514        C515   1.381       .  A
C514        H517   1.080       .  S
C515       C1124   1.383       .  A
C516       C1123   1.383       .  A
C516        H518   1.082       .  S
O519        C529   1.279       .  A
O519       Cu527   2.026   1_655  S
O520        C530   1.280       .  A
O520       Cu527   2.021       .  S
O521        C531   1.279       .  A
O521       Cu527   2.011   1_655  S
O522        C532   1.278       .  A
O522       Cu527   2.018       .  S
O523        C532   1.278       .  A
O523       Cu528   2.010       .  S
O524        C531   1.276       .  A
O524       Cu528   1.994   1_655  S
O525        C530   1.274       .  A
O525       Cu528   1.975       .  S
O526        C529   1.275       .  A
O526       Cu528   1.982   1_655  S
Cu527      Cu528   2.374       .  S
C531        C546   1.470       .  S
N533        C537   1.349       .  A
N533        N534   1.323       .  A
N533       Cu541   2.092       .  S
N534        C535   1.344       .  A
N534       Cu540   2.067       .  S
C535        C536   1.380       .  A
C535        H538   1.082       .  S
C536        C537   1.386       .  A
C536        C594   1.469       .  S
C537        H539   1.082       .  S
Cu540       N543   2.065       .  S
Cu541       N551   2.092       .  S
Cu542       N544   2.062       .  S
Cu542       N550   2.063       .  S
N543        C547   1.342       .  A
N543        N544   1.319       .  A
N544        C545   1.342       .  A
C545        C546   1.385       .  A
C545        H548   1.083       .  S
C546        C547   1.387       .  A
C547        H549   1.083       .  S
N550        C554   1.345       .  A
N550        N551   1.322       .  A
N551        C552   1.346       .  A
C552        C553   1.387       .  A
C552        H555   1.082       .  S
C553        C554   1.380       .  A
C554        H556   1.081       .  S
N557        C561   1.353       .  A
N557        N558   1.323       .  A
N557       Cu565   2.111       .  S
N558        C559   1.344       .  A
N558       Cu564   2.068       .  S
C559        C560   1.381       .  A
C559        H562   1.082       .  S
C560        C561   1.392       .  A
C560        C593   1.479       .  S
C561        H563   1.082       .  S
Cu564       N567   2.066       .  S
Cu565       N575   2.112       .  S
Cu566       N568   2.047       .  S
Cu566       N574   2.051       .  S
N567        C571   1.339       .  A
N567        N568   1.318       .  A
N568        C569   1.345       .  A
C569        C570   1.384       .  A
C569        H572   1.082       .  S
C570        C571   1.381       .  A
C570        C608   1.465       .  S
C571        H573   1.083       .  S
N574        C578   1.343       .  A
N574        N575   1.325       .  A
N575        C576   1.348       .  A
C576        C577   1.390       .  A
C576        H579   1.082       .  S
C577        C578   1.376       .  A
C578        H580   1.082       .  S
O581        C591   1.279       .  A
O581       Cu589   2.004       .  S
O582        C592   1.275       .  A
O582       Cu589   1.995       .  S
O583        C593   1.279       .  A
O583       Cu589   2.029       .  S
O584        C594   1.278       .  A
O584       Cu589   2.013       .  S
O585        C594   1.278       .  A
O585       Cu590   2.019       .  S
O586        C593   1.280       .  A
O586       Cu590   2.024       .  S
O587        C592   1.283       .  A
O587       Cu590   2.040       .  S
O588        C591   1.277       .  A
O588       Cu590   2.028       .  S
Cu589      Cu590   2.373       .  S
O595        C605   1.276       .  A
O595       Cu603   1.990       .  S
O596        C606   1.278       .  A
O596       Cu603   2.006       .  S
O597        C607   1.275       .  A
O597       Cu603   1.983       .  S
O598        C608   1.275       .  A
O598       Cu603   1.976       .  S
O599        C608   1.278       .  A
O599       Cu604   2.014       .  S
O600        C607   1.279       .  A
O600       Cu604   2.023       .  S
O601        C606   1.278       .  A
O601       Cu604   2.023       .  S
O602        C605   1.280       .  A
O602       Cu604   2.017       .  S
Cu603      Cu604   2.374       .  S
N609        C613   1.363       .  A
N609        C610   1.368       .  A
N609        C672   1.443       .  S
C610        C611   1.391       .  A
C610        C617   1.504       .  S
C611        C612   1.371       .  A
C611        H614   1.083       .  S
C612        C613   1.377       .  A
C612        H615   1.083       .  S
C613        C834   1.484       .  S
N616        C620   1.351       .  A
N616        C617   1.365       .  A
N616        C710   1.454       .  S
C617        C618   1.393       .  A
C618        C619   1.376       .  A
C618        H621   1.083       .  S
C619        C620   1.378       .  A
C619        H622   1.082       .  S
C620        C847   1.478       .  S
N623        C627   1.364       .  A
N623        C624   1.367   1_455  A
N623        C671   1.443       .  S
C624        C625   1.392       .  A
C624        C631   1.504       .  S
C625        C626   1.372   1_655  A
C625        H628   1.083       .  S
C626        C627   1.377       .  A
C626        H629   1.083       .  S
C627        C833   1.486       .  S
N630        C634   1.351       .  A
N630        C631   1.364       .  A
N630        C709   1.453       .  S
C631        C632   1.393       .  A
C632        C633   1.377       .  A
C632        H635   1.083   1_655  S
C633        C634   1.378       .  A
C633        H636   1.082       .  S
C634        C848   1.479       .  S
N637        C641   1.350       .  A
N637        N638   1.320       .  A
N637       Cu645   2.087       .  S
N638        C639   1.341       .  A
N638       Cu644   2.055       .  S
C639        C640   1.380       .  A
C639        H642   1.082       .  S
C640        C641   1.387       .  A
C640        C673   1.469       .  S
Cu644       N647   2.055       .  S
Cu645       N655   2.089       .  S
Cu646       N648   2.094       .  S
Cu646       N654   2.095       .  S
N647        C651   1.339       .  A
N647        N648   1.320       .  A
N648        C649   1.353       .  A
C649        C650   1.392       .  A
C649        H652   1.082       .  S
C650        C651   1.380       .  A
C650        C773   1.476       .  S
C651        H653   1.082       .  S
N654        C658   1.347       .  A
N654        N655   1.326       .  A
C656        C657   1.381       .  A
C656        H659   1.080   1_554  S
C657       C1047   1.472   1_544  S
C658        H660   1.081   1_545  S
O661        C671   1.282       .  A
O662        C672   1.279       .  A
O662       Cu669   2.027       .  S
O663       Cu669   2.013       .  S
O664        C674   1.276       .  A
O664       Cu669   1.996       .  S
O665       Cu670   2.018       .  S
O666        C673   1.278       .  A
O666       Cu670   2.006       .  S
O667        C672   1.280       .  A
O668        C671   1.278       .  A
O668       Cu670   2.022       .  S
C674        C678   1.468       .  S
N675        C679   1.349       .  A
N675        N676   1.320       .  A
N675       Cu683   2.084       .  S
N676        C677   1.341       .  A
N676       Cu682   2.057       .  S
C677        C678   1.381       .  A
C677        H680   1.082       .  S
C678        C679   1.386       .  A
Cu682       N685   2.057       .  S
Cu683       N693   2.087       .  S
Cu684       N686   2.084       .  S
Cu684       N692   2.087       .  S
N685        C689   1.338       .  A
N685        N686   1.321       .  A
N686        C687   1.352       .  A
C687        C688   1.389       .  A
C687        H690   1.082       .  S
C688        C689   1.379       .  A
C688        C910   1.470       .  S
C689        H691   1.082       .  S
N692        C696   1.347       .  A
N692        N693   1.326       .  A
N693        C694   1.345       .  A
C694        C695   1.380       .  A
C695        C696   1.383       .  A
C695       C1023   1.471       .  S
C696        H698   1.082       .  S
O699        C709   1.283       .  A
O699       Cu707   2.034       .  S
O700        C710   1.282       .  A
O701        C711   1.278       .  A
O701       Cu707   2.000       .  S
O702       Cu707   2.000       .  S
O703        C712   1.278       .  A
O703       Cu708   1.999       .  S
O704       Cu708   1.996       .  S
O705        C710   1.282       .  A
O705       Cu708   2.026       .  S
O706        C709   1.281       .  A
C711        C716   1.459       .  S
C712        C740   1.461       .  S
N713        C717   1.348       .  A
N713        N714   1.319       .  A
N713       Cu721   2.079       .  S
N714        C715   1.337       .  A
N714       Cu720   2.034       .  S
C715        C716   1.375       .  A
C715        H718   1.082       .  S
C716        C717   1.386       .  A
Cu720       N723   2.031       .  S
Cu721       N731   2.083       .  S
Cu722       N724   2.080       .  S
Cu722       N730   2.083       .  S
N723        C727   1.336       .  A
N723        N724   1.319       .  A
N724        C725   1.349       .  A
C725        C726   1.388       .  A
C725        H728   1.082       .  S
C726        C727   1.375       .  A
C726        C772   1.463       .  S
C727        H729   1.082       .  S
N730        C734   1.345       .  A
N730        N731   1.326       .  A
C732        C733   1.379       .  A
C732        H735   1.078       .  S
C733       C1099   1.469   1_545  S
C734        H736   1.082   1_545  S
N737        C741   1.350       .  A
N737        N738   1.319       .  A
N737       Cu745   2.086       .  S
N738        C739   1.337       .  A
N738       Cu744   2.031       .  S
C739        C740   1.374       .  A
C739        H742   1.082       .  S
C740        C741   1.387       .  A
Cu744       N747   2.028       .  S
Cu745       N755   2.090       .  S
Cu746       N748   2.087       .  S
Cu746       N754   2.090       .  S
N747        C751   1.336       .  A
N747        N748   1.319       .  A
N748        C749   1.351       .  A
C749        C750   1.391       .  A
C749        H752   1.082       .  S
C750        C751   1.375       .  A
C750        C911   1.466       .  S
C751        H753   1.082       .  S
N754        C758   1.345       .  A
N754        N755   1.327       .  A
N755        C756   1.347   1_556  A
C756        C757   1.380   1_554  A
C757        C758   1.381       .  A
C757       C1123   1.471   1_556  S
C758        H760   1.080       .  S
O761        C771   1.276       .  A
O761       Cu769   1.984       .  S
O762        C772   1.277       .  A
O762       Cu769   1.992       .  S
O763        C773   1.276       .  A
O763       Cu769   1.994       .  S
O764        C774   1.274       .  A
O764       Cu769   1.979       .  S
O765        C774   1.282       .  A
O765       Cu770   2.030       .  S
O766        C773   1.281       .  A
O766       Cu770   2.041       .  S
O767        C772   1.276       .  A
O767       Cu770   2.010       .  S
O768        C771   1.278       .  A
O768       Cu770   2.012       .  S
Cu769      Cu770   2.374       .  S
C771        C788   1.467       .  S
C774        C864   1.473       .  S
N775        C779   1.348       .  A
N775        N776   1.323       .  A
N775       Cu783   2.090       .  S
N776        C777   1.346       .  A
N776       Cu782   2.068       .  S
C777        C778   1.381       .  A
C777        H780   1.082       .  S
C778        C779   1.386       .  A
C778        C836   1.470       .  S
C779        H781   1.082       .  S
Cu782       N785   2.066       .  S
Cu783       N793   2.090       .  S
Cu784       N786   2.058       .  S
Cu784       N792   2.061       .  S
N785        C789   1.341       .  A
N785        N786   1.319       .  A
N786        C787   1.342       .  A
C787        C788   1.383       .  A
C787        H790   1.083       .  S
C788        C789   1.384       .  A
C789        H791   1.083       .  S
N792        C796   1.345       .  A
N792        N793   1.323       .  A
N793        C794   1.345       .  A
C794        C795   1.386       .  A
C794        H797   1.082       .  S
C795        C796   1.381       .  A
C795        C961   1.472   1_545  S
C796        H798   1.082   1_545  S
N799        C803   1.351       .  A
N799        N800   1.324       .  A
N799       Cu807   2.106       .  S
N800        C801   1.344       .  A
N800       Cu806   2.063       .  S
C801        C802   1.378       .  A
C801        H804   1.082       .  S
C802        C803   1.389       .  A
C802        C835   1.472       .  S
C803        H805   1.082       .  S
Cu806       N809   2.063       .  S
Cu807       N817   2.106       .  S
Cu808       N810   2.054       .  S
Cu808       N816   2.056       .  S
N809        C813   1.342       .  A
N809        N810   1.318       .  A
N810        C811   1.343       .  A
C811        C812   1.385       .  A
C811        H814   1.083       .  S
C812        C813   1.384       .  A
C812        C912   1.468       .  S
C813        H815   1.083       .  S
N816        C820   1.342       .  A
N816        N817   1.324       .  A
N817        C818   1.349       .  A
C818        C819   1.390       .  A
C818        H821   1.082       .  S
C819        C820   1.377       .  A
C819        C999   1.474       .  S
C820        H822   1.081       .  S
O823        C833   1.283       .  A
O823       Cu831   2.040       .  S
O824        C834   1.277       .  A
O824       Cu831   2.028       .  S
O825        C835   1.279       .  A
O825       Cu831   2.026       .  S
O826        C836   1.278       .  A
O826       Cu831   2.017       .  S
O827        C836   1.278       .  A
O827       Cu832   2.018       .  S
O828        C835   1.277       .  A
O828       Cu832   2.011       .  S
O829        C834   1.283       .  A
O829       Cu832   2.038       .  S
O830        C833   1.277       .  A
O830       Cu832   2.031       .  S
Cu831      Cu832   2.373       .  S
O837        C847   1.280       .  A
O837       Cu845   2.018       .  S
O838        C848   1.276       .  A
O838       Cu845   2.002       .  S
O839        C849   1.277       .  A
O839       Cu845   2.014       .  S
O840        C850   1.280       .  A
O840       Cu845   2.023       .  S
O841        C850   1.277       .  A
O841       Cu846   2.015       .  S
O842        C849   1.280       .  A
O842       Cu846   2.025       .  S
O843        C848   1.280       .  A
O843       Cu846   2.018       .  S
O844        C847   1.276       .  A
O844       Cu846   2.002       .  S
Cu845      Cu846   2.372       .  S
C849        C854   1.475       .  S
C850        C878   1.475       .  S
N851        C855   1.352       .  A
N851        N852   1.323       .  A
N851       Cu859   2.105       .  S
N852        C853   1.344       .  A
N852       Cu858   2.076       .  S
C853        C854   1.383       .  A
C853        H856   1.082       .  S
C854        C855   1.391       .  A
C855        H857   1.082       .  S
Cu858       N861   2.076       .  S
Cu859       N869   2.106       .  S
Cu860       N862   2.051       .  S
Cu860       N868   2.048       .  S
N861        C865   1.342       .  A
N861        N862   1.317       .  A
N862        C863   1.344       .  A
C863        C864   1.385       .  A
C863        H866   1.082       .  S
C864        C865   1.390       .  A
C865        H867   1.082       .  S
N868        C872   1.341       .  A
N868        N869   1.323       .  A
N869        C870   1.349       .  A
C870        C871   1.390       .  A
C870        H873   1.082       .  S
C871        C872   1.376       .  A
C871       C1185   1.473   1_545  S
C872        H874   1.081       .  S
N875        C879   1.350       .  A
N875        N876   1.323       .  A
N875       Cu883   2.098       .  S
N876        C877   1.344       .  A
N876       Cu882   2.077       .  S
C877        C878   1.384       .  A
C877        H880   1.082       .  S
C878        C879   1.389       .  A
C879        H881   1.082       .  S
Cu882       N885   2.078       .  S
Cu883       N893   2.098       .  S
Cu884       N886   2.054       .  S
Cu884       N892   2.057       .  S
N885        C889   1.342       .  A
N885        N886   1.318       .  A
N886        C887   1.343       .  A
C887        C888   1.384       .  A
C887        H890   1.082       .  S
C888        C889   1.388       .  A
C888        C909   1.470       .  S
C889        H891   1.082       .  S
N892        C896   1.343       .  A
N892        N893   1.323       .  A
N893        C894   1.348       .  A
C894        C895   1.388       .  A
C894        H897   1.082       .  S
C895        C896   1.379       .  A
C895       C1161   1.473       .  S
C896        H898   1.082       .  S
O899        C909   1.274       .  A
O899       Cu907   1.977       .  S
O900        C910   1.275       .  A
O900       Cu907   1.988   1_455  S
O901        C911   1.278       .  A
O901       Cu907   1.998       .  S
O902        C912   1.276       .  A
O902       Cu907   1.989   1_455  S
O903        C912   1.278       .  A
O903       Cu908   2.008   1_455  S
O904        C911   1.276       .  A
O904       Cu908   2.012       .  S
O905        C910   1.280       .  A
O905       Cu908   2.034   1_455  S
O906        C909   1.281       .  A
O906       Cu908   2.023       .  S
Cu907      Cu908   2.374       .  S
N913        C917   1.361       .  A
N913        C914   1.368       .  A
N913        C977   1.454       .  S
C914        C915   1.381       .  A
C914        C921   1.492       .  S
C915        C916   1.367       .  A
C915        H918   1.080       .  S
C916        C917   1.384       .  A
C916        H919   1.083       .  S
C917       C1061   1.473       .  S
N920        C924   1.364       .  A
N920        C921   1.370       .  A
N920       C1076   1.457       .  S
C921        C922   1.384       .  A
C922        C923   1.361       .  A
C922        H925   1.076       .  S
C923        C924   1.376       .  A
C923        H926   1.083       .  S
C924       C1199   1.472       .  S
N927        C931   1.354       .  A
N927        C928   1.361       .  A
N927        C978   1.446       .  S
C928        C929   1.391   1_455  A
C928        C935   1.497   1_455  S
C929        C930   1.376   1_655  A
C929        H932   1.083       .  S
C930        C931   1.379       .  A
C930        H933   1.083       .  S
C931       C1062   1.475       .  S
N934        C938   1.365       .  A
N934        C935   1.364       .  A
N934       C1200   1.441       .  S
C935        C936   1.389   1_655  A
C936        C937   1.369   1_455  A
C936        H939   1.083       .  S
C937        C938   1.381       .  A
C937        H940   1.083       .  S
C938       C1075   1.500       .  S
N941        C945   1.347       .  A
N941        N942   1.323       .  A
N941       Cu949   2.089       .  S
N942        C943   1.345       .  A
N942       Cu948   2.072       .  S
C943        C944   1.382       .  A
C943        H946   1.082       .  S
C944        C945   1.386       .  A
C944        C975   1.469       .  S
C945        H947   1.082       .  S
Cu948       N951   2.071       .  S
Cu949       N959   2.089       .  S
Cu950       N952   2.060       .  S
Cu950       N958   2.060       .  S
N951        C955   1.343       .  A
N951        N952   1.319       .  A
N952        C953   1.342       .  A
C953        C954   1.385       .  A
C953        H956   1.082       .  S
C954        C955   1.389       .  A
C954       C1213   1.473       .  S
C955        H957   1.082       .  S
N958        C962   1.343       .  A
N958        N959   1.322       .  A
N959        C960   1.348       .  A
C960        C961   1.387       .  A
C960        H963   1.082       .  S
C961        C962   1.379       .  A
C962        H964   1.080       .  S
O965        C975   1.276       .  A
O965       Cu973   2.008       .  S
O966        C976   1.278       .  A
O966       Cu973   2.012       .  S
O967        C977   1.285       .  A
O967       Cu973   2.045       .  S
O968        C978   1.278       .  A
O968       Cu973   2.026       .  S
O969        C978   1.284       .  A
O969       Cu974   2.051       .  S
O970        C977   1.280       .  A
O970       Cu974   2.044       .  S
O971        C976   1.280       .  A
O971       Cu974   2.038       .  S
O972        C975   1.279       .  A
O972       Cu974   2.021       .  S
Cu973      Cu974   2.370       .  S
C976        C982   1.478       .  S
N979        C983   1.352       .  A
N979        N980   1.323       .  A
N979       Cu987   2.103       .  S
N980        C981   1.345       .  A
N980       Cu986   2.077       .  S
C981        C982   1.383       .  A
C981        H984   1.082       .  S
C982        C983   1.388       .  A
C983        H985   1.081       .  S
Cu986       N989   2.073       .  S
Cu987       N997   2.104       .  S
Cu988       N990   2.050       .  S
Cu988       N996   2.053       .  S
N989        C993   1.340       .  A
N989        N990   1.318       .  A
N990        C991   1.344       .  A
C991        C992   1.384       .  A
C991        H994   1.082       .  S
C992        C993   1.387       .  A
C992       C1138   1.469       .  S
C993        H995   1.082       .  S
N996       C1000   1.344       .  A
N996        N997   1.324       .  A
N997        C998   1.347       .  A
C998        C999   1.388       .  A
C998       H1001   1.082       .  S
C999       C1000   1.379       .  A
C1000      H1002   1.082       .  S
N1003      C1007   1.352   1_554  A
N1003     Cu1011   2.086       .  S
N1004      C1005   1.339       .  A
N1004     Cu1010   2.058       .  S
C1005      H1008   1.082       .  S
C1006      C1007   1.384   1_554  A
C1006      C1063   1.467   1_554  S
C1007      H1009   1.080       .  S
Cu1010     N1013   2.058       .  S
Cu1011     N1021   2.088       .  S
Cu1012     N1014   2.083       .  S
Cu1012     N1020   2.084       .  S
N1013      C1017   1.342       .  A
N1013      N1014   1.320       .  A
N1014      C1015   1.349       .  A
C1015      C1016   1.388       .  A
C1015      H1018   1.082       .  S
C1016      C1017   1.381       .  A
C1016      C1140   1.472       .  S
C1017      H1019   1.082       .  S
N1020      C1024   1.346       .  A
N1021      C1022   1.347   1_554  A
C1022      C1023   1.381       .  A
C1022      H1025   1.081       .  S
C1024      H1026   1.082       .  S
N1027      C1031   1.350       .  A
N1027      N1028   1.322       .  A
N1027     Cu1035   2.099       .  S
N1028      C1029   1.343       .  A
N1028     Cu1034   2.055       .  S
C1029      C1030   1.378       .  A
C1029      H1032   1.082       .  S
C1030      C1031   1.389       .  A
C1030      C1064   1.471       .  S
C1031      H1033   1.082       .  S
Cu1034     N1037   2.052       .  S
Cu1035     N1045   2.100       .  S
Cu1036     N1038   2.070       .  S
Cu1036     N1044   2.072       .  S
N1037      C1041   1.338       .  A
N1037      N1038   1.320       .  A
N1038      C1039   1.348       .  A
C1039      C1040   1.385       .  A
C1039      H1042   1.082       .  S
C1040      C1041   1.379       .  A
C1040      C1215   1.465       .  S
C1041      H1043   1.082       .  S
N1044      C1048   1.344       .  A
N1044      N1045   1.325       .  A
N1045      C1046   1.348       .  A
C1046      C1047   1.384       .  A
C1047      C1048   1.380       .  A
C1048      H1050   1.082       .  S
O1051      C1061   1.277       .  A
O1052      C1062   1.284       .  A
O1052     Cu1059   2.035       .  S
O1054      C1064   1.276       .  A
O1054     Cu1059   2.010       .  S
O1055      C1064   1.280       .  A
O1055     Cu1060   2.023       .  S
O1056      C1063   1.279       .  A
O1056     Cu1060   2.031       .  S
O1057      C1062   1.273       .  A
O1057     Cu1060   2.001       .  S
O1058     Cu1060   1.993       .  S
Cu1059    Cu1060   2.375       .  S
O1065      C1075   1.283       .  A
O1065     Cu1073   2.067       .  S
O1066     Cu1073   2.067   1_554  S
O1067      C1077   1.274       .  A
O1067     Cu1073   1.989       .  S
O1068      C1078   1.274   1_556  A
O1068     Cu1073   1.992       .  S
O1070      C1077   1.279   1_554  A
O1070     Cu1074   2.009       .  S
O1071      C1076   1.277       .  A
O1072      C1075   1.279       .  A
O1072     Cu1074   2.005   1_556  S
Cu1073    Cu1074   2.369   1_556  S
C1077      C1082   1.464       .  S
C1078      C1106   1.467       .  S
N1079      C1083   1.344       .  A
N1079      N1080   1.320       .  A
N1079     Cu1087   2.068       .  S
N1080      C1081   1.344       .  A
N1080     Cu1086   2.064       .  S
C1081      C1082   1.384       .  A
C1081      H1084   1.082       .  S
C1082      C1083   1.381       .  A
C1083      H1085   1.082       .  S
Cu1086     N1089   2.064       .  S
Cu1087     N1097   2.069       .  S
Cu1088     N1090   2.090       .  S
Cu1088     N1096   2.090       .  S
N1089      C1093   1.341       .  A
N1089      N1090   1.322       .  A
N1090      C1091   1.351       .  A
C1091      C1092   1.388       .  A
C1091      H1094   1.082       .  S
C1092      C1093   1.379       .  A
C1092      C1214   1.471       .  S
C1093      H1095   1.082       .  S
N1096      C1100   1.346       .  A
N1096      N1097   1.324       .  A
N1097      C1098   1.344       .  A
C1098      C1099   1.379       .  A
C1099      C1100   1.385       .  A
C1100      H1102   1.082   1_565  S
N1103      C1107   1.347       .  A
N1103     Cu1111   2.087       .  S
N1104      C1105   1.342       .  A
N1104     Cu1110   2.046       .  S
C1105      H1108   1.082       .  S
C1106      C1107   1.389       .  A
C1107      H1109   1.082   1_554  S
Cu1110     N1113   2.046       .  S
Cu1111     N1121   2.089       .  S
Cu1112     N1114   2.080       .  S
Cu1112     N1120   2.082       .  S
N1113      C1117   1.336       .  A
N1113      N1114   1.321       .  A
N1114      C1115   1.350       .  A
C1115      C1116   1.388       .  A
C1115      H1118   1.082       .  S
C1116      C1117   1.377       .  A
C1116      C1137   1.465       .  S
C1117      H1119   1.082       .  S
N1120      C1124   1.346       .  A
N1121      C1122   1.345       .  A
C1122      C1123   1.381       .  A
C1122      H1125   1.080   1_554  S
C1124      H1126   1.082       .  S
O1127      C1137   1.279       .  A
O1127     Cu1135   2.026   1_655  S
O1128      C1138   1.280       .  A
O1128     Cu1135   2.021       .  S
O1129      C1139   1.279       .  A
O1129     Cu1135   2.011   1_655  S
O1130      C1140   1.278       .  A
O1130     Cu1135   2.018       .  S
O1131      C1140   1.278       .  A
O1131     Cu1136   2.010       .  S
O1132      C1139   1.276       .  A
O1132     Cu1136   1.994   1_655  S
O1133      C1138   1.274       .  A
O1133     Cu1136   1.975       .  S
O1134      C1137   1.275       .  A
O1134     Cu1136   1.982   1_655  S
Cu1135    Cu1136   2.374       .  S
C1139      C1154   1.470       .  S
N1141      C1145   1.349       .  A
N1141      N1142   1.323       .  A
N1141     Cu1149   2.092       .  S
N1142      C1143   1.344       .  A
N1142     Cu1148   2.067       .  S
C1143      C1144   1.380       .  A
C1143      H1146   1.082       .  S
C1144      C1145   1.386       .  A
C1144      C1202   1.469       .  S
C1145      H1147   1.082       .  S
Cu1148     N1151   2.065       .  S
Cu1149     N1159   2.092       .  S
Cu1150     N1152   2.062       .  S
Cu1150     N1158   2.063       .  S
N1151      C1155   1.342       .  A
N1151      N1152   1.319       .  A
N1152      C1153   1.342       .  A
C1153      C1154   1.385       .  A
C1153      H1156   1.083       .  S
C1154      C1155   1.387       .  A
C1155      H1157   1.082       .  S
N1158      C1162   1.345       .  A
N1158      N1159   1.322       .  A
N1159      C1160   1.346       .  A
C1160      C1161   1.387       .  A
C1160      H1163   1.082       .  S
C1161      C1162   1.380       .  A
C1162      H1164   1.081       .  S
N1165      C1169   1.353       .  A
N1165      N1166   1.323       .  A
N1165     Cu1173   2.111       .  S
N1166      C1167   1.344       .  A
N1166     Cu1172   2.068       .  S
C1167      C1168   1.381       .  A
C1167      H1170   1.082       .  S
C1168      C1169   1.392       .  A
C1168      C1201   1.479       .  S
C1169      H1171   1.082       .  S
Cu1172     N1175   2.066       .  S
Cu1173     N1183   2.112       .  S
Cu1174     N1176   2.047       .  S
Cu1174     N1182   2.051       .  S
N1175      C1179   1.339       .  A
N1175      N1176   1.318       .  A
N1176      C1177   1.345       .  A
C1177      C1178   1.384       .  A
C1177      H1180   1.082       .  S
C1178      C1179   1.381       .  A
C1178      C1216   1.465       .  S
C1179      H1181   1.083       .  S
N1182      C1186   1.343       .  A
N1182      N1183   1.325       .  A
N1183      C1184   1.348       .  A
C1184      C1185   1.390       .  A
C1184      H1187   1.082       .  S
C1185      C1186   1.376       .  A
C1186      H1188   1.082       .  S
O1189      C1199   1.279       .  A
O1189     Cu1197   2.004       .  S
O1190      C1200   1.275       .  A
O1190     Cu1197   1.995       .  S
O1191      C1201   1.279       .  A
O1191     Cu1197   2.029       .  S
O1192      C1202   1.278       .  A
O1192     Cu1197   2.013       .  S
O1193      C1202   1.278       .  A
O1193     Cu1198   2.019       .  S
O1194      C1201   1.280       .  A
O1194     Cu1198   2.024       .  S
O1195      C1200   1.283       .  A
O1195     Cu1198   2.040       .  S
O1196      C1199   1.277       .  A
O1196     Cu1198   2.028       .  S
Cu1197    Cu1198   2.373       .  S
O1203      C1213   1.276       .  A
O1203     Cu1211   1.990       .  S
O1204      C1214   1.278       .  A
O1204     Cu1211   2.006       .  S
O1205      C1215   1.275       .  A
O1205     Cu1211   1.983       .  S
O1206      C1216   1.275       .  A
O1206     Cu1211   1.976       .  S
O1207      C1216   1.278       .  A
O1207     Cu1212   2.014       .  S
O1208      C1215   1.279       .  A
O1208     Cu1212   2.023       .  S
O1209      C1214   1.278       .  A
O1209     Cu1212   2.023       .  S
O1210      C1213   1.280       .  A
O1210     Cu1212   2.017       .  S
Cu1211    Cu1212   2.374       .  S
