geometry optimzed in LAMMPS
_audit_creation_date              2020-11-30 
_audit_creation_method            'lammps2cif' 
_symmetry_space_group_name_H-M    'P1' 
_symmetry_Int_Tables_number       1 
_symmetry_cell_setting            triclinic 
loop_ 
_symmetry_equiv_pos_as_xyz 
  x,y,z 
_cell_length_a                    36.77988936 
_cell_length_b                    36.74338298613416 
_cell_length_c                    36.78784645446879 
_cell_angle_alpha                 90.2831313620224 
_cell_angle_beta                  90.11452911412414 
_cell_angle_gamma                 89.85835805021868 
loop_ 
_atom_site_label 
_atom_site_type_symbol 
_atom_site_fract_x 
_atom_site_fract_y 
_atom_site_fract_z 
_atom_site_charge 
N1          N  0.21791333  0.15198242  0.03702819    -0.03100
C2          C  0.25472196  0.15123183  0.04318157    -0.00500
C3          C  0.27013383  0.12692822  0.01863296    -0.23400
C4          C  0.24224316  0.11190007  0.99792057    -0.23600
C5          C  0.20990630  0.12632835  0.01072116    -0.00600
H6          H  0.29866779  0.11994200  0.51665412     0.13200
H7          H  0.24515766  0.09057284  0.47773253     0.13200
N8          N  0.01281878  0.02231220  0.36485645    -0.03100
C9          C  0.02537087  0.01933847  0.39954552    -0.00500
C10         C  0.01504718  0.48556900  0.41249645    -0.23400
C11         C  0.49653786  0.46765230  0.38451211    -0.23600
C12         C  0.49508133  0.99115341  0.35514574    -0.00600
H13         H  0.02061395  0.47483877  0.43925012     0.13200
H14         H  0.48583008  0.44027433  0.38546494     0.13200
N15         N  0.39630329  0.34473737  0.16370677    -0.03100
C16         C  0.40167819  0.38131630  0.16481895    -0.00500
C17         C  0.37569464  0.39718117  0.14247160    -0.23400
C18         C  0.35514072  0.36918868  0.12696511    -0.23600
C19         C  0.36975301  0.33674101  0.13907640    -0.00600
H20         H  0.37209123  0.42600493  0.13769636     0.13200
H21         H  0.33311550  0.37229115  0.10780661     0.13200
C22         C  0.17021652  0.27042125  0.26058506     0.03500
C23         C  0.17183134  0.24337811  0.28733565    -0.12600
C24         C  0.14292571  0.24070637  0.31190255     0.01000
C25         C  0.11911837  0.27048196  0.31527355    -0.11100
C26         C  0.11887748  0.29707931  0.28856608     0.03500
C27         C  0.15026184  0.30157187  0.26782611    -0.10600
H28         H  0.18914399  0.22007753  0.28272461     0.09100
H29         H  0.09502285  0.26805768  0.33157700     0.06700
H30         H  0.15077719  0.32260134  0.24748897     0.06500
O31         O  0.17420293  0.28264329  0.37876744    -0.81400
C32         C  0.27996995  0.38293155  0.32198201     0.98000
O33         O  0.28392095  0.34838599  0.32562366    -0.70500
O34         O  0.27498071  0.31533864  0.39378640    -0.74100
Al35       Al  0.25231769  0.30888467  0.34757611     1.49000
C36         C  0.25999642  0.30161408  0.42152059     0.93200
O37         O  0.19503505  0.37488517  0.41849841    -0.80300
O38         O  0.15792812  0.36259147  0.31833384    -0.73900
Al39       Al  0.18652408  0.32908762  0.39607012     1.90100
O40         O  0.18514230  0.40819034  0.37021859    -0.72900
O41         O  0.22383854  0.35365265  0.28357848    -0.72800
O42         O  0.25289613  0.39789349  0.33726100    -0.78500
O43         O  0.23409479  0.29776121  0.30079707    -0.76700
O44         O  0.21495349  0.33854895  0.35797247    -1.12800
O45         O  0.22857082  0.26302518  0.36586475    -0.72000
C46         C  0.19644205  0.25667484  0.37747339     0.98700
C47         C  0.18104002  0.40291989  0.40439061     0.95100
Al48       Al  0.20587852  0.37731149  0.32985983     1.55600
O49         O  0.22588479  0.30660772  0.42620736    -0.76600
C50         C  0.23436421  0.32119055  0.27594735     0.99300
C51         C  0.13299919  0.36065895  0.34186116     0.94200
O52         O  0.14069921  0.34835949  0.37343274    -0.81900
N53         N  0.04133090  0.03113288  0.11447240    -0.03100
C54         C  0.03374706  0.03128380  0.15067701    -0.00500
C55         C  0.04832422  0.06297719  0.16517781    -0.23400
C56         C  0.06455098  0.08212538  0.13680078    -0.23600
C57         C  0.06081400  0.06136585  0.10549747    -0.00600
H58         H  0.04628322  0.07199873  0.19315097     0.13200
H59         H  0.07673113  0.10867198  0.13893533     0.13200
N60         N  0.15946366  0.21180476  0.41704757    -0.03100
C61         C  0.15160312  0.17527265  0.41556138    -0.00500
C62         C  0.17374365  0.15961858  0.38920645    -0.23400
C63         C  0.19463598  0.18699050  0.37385297    -0.23600
C64         C  0.18440663  0.21934747  0.39023480    -0.00600
H65         H  0.17425112  0.13118969  0.38138921     0.13200
H66         H  0.21346201  0.18381940  0.35147535     0.13200
N67         N  0.33768935  0.40557525  0.28719053    -0.03100
C68         C  0.30112601  0.40476653  0.29342910    -0.00500
C69         C  0.28482649  0.42786580  0.26844079    -0.23400
C70         C  0.31220556  0.44324573  0.24729915    -0.23600
C71         C  0.34502534  0.43031186  0.26043392    -0.00600
H72         H  0.25600343  0.43331909  0.26595144     0.13200
H73         H  0.30842383  0.46315658  0.22606337     0.13200
C74         C  0.41386454  0.30864694  0.06369487     0.03500
C75         C  0.38548684  0.30765026  0.03842745    -0.12600
C76         C  0.38900432  0.28407776  0.50855075     0.01000
C77         C  0.41182734  0.25383231  0.51178662    -0.11100
C78         C  0.43943235  0.25564122  0.53789082     0.03500
C79         C  0.43315542  0.27627371  0.06879652    -0.10600
H80         H  0.36889718  0.33147710  0.03493353     0.09100
H81         H  0.41691897  0.23743726  0.48789220     0.06700
H82         H  0.45317368  0.27449234  0.09012626     0.06500
O83         O  0.14742676  0.11291049  0.02311270    -0.81400
C84         C  0.04651432  0.04797433  0.42143013     0.98000
O85         O  0.08037519  0.05425953  0.41572980    -0.70500
O86         O  0.11068980  0.12441729  0.42350679    -0.74100
Al87       Al  0.11993931  0.07836375  0.44575398     1.49000
C88         C  0.12409504  0.15296503  0.43770267     0.93200
O89         O  0.05212923  0.14621134  0.00470332    -0.80300
O90         O  0.07173594  0.04747048  0.04267073    -0.73900
Al91       Al  0.09960747  0.12681087  0.01207481     1.90100
O92         O  0.02236611  0.09601950  0.01627571    -0.72900
O93         O  0.07953100  0.51258612  0.97765622    -0.72800
O94         O  0.03166983  0.06212358  0.44913053    -0.78500
O95         O  0.13372396  0.03182954  0.46235273    -0.76700
O96         O  0.09136377  0.08749543  0.98430556    -1.12800
O97         O  0.16564128  0.09903901  0.46837488    -0.72000
C98         C  0.17258483  0.11203032  0.00004489     0.98700
C99         C  0.02546430  0.13053748  0.01956846     0.95100
Al100      Al  0.05453295  0.05734811  0.99524451     1.55600
O101        O  0.11943427  0.15794777  0.97182347    -0.76600
C102        C  0.11136677  0.50605696  0.96541725     0.99300
C103        C  0.07331482  0.07135987  0.06738155     0.94200
O104        O  0.08330969  0.10362036  0.05892543    -0.81900
N105        N  0.96955111  0.16376783  0.04583892    -0.03100
C106        C  0.00407279  0.15092975  0.04832323    -0.00500
C107        C  0.01689541  0.15799747  0.08310087    -0.23400
C108        C  0.98913607  0.17513159  0.10222983    -0.23600
C109        C  0.46013617  0.17894897  0.07849971    -0.00600
H110        H  0.04342575  0.15116349  0.09377117     0.13200
H111        H  0.99015649  0.18390579  0.13033172     0.13200
N112        N  0.26175174  0.27756677  0.22741904    -0.03100
C113        C  0.27946791  0.28128537  0.19519666    -0.00500
C114        C  0.27899557  0.31783798  0.18602712    -0.23400
C115        C  0.26109585  0.33662973  0.21357455    -0.23600
C116        C  0.25070986  0.31134877  0.23926425    -0.00600
H117        H  0.29109097  0.32999180  0.16228932     0.13200
H118        H  0.25730911  0.36580309  0.21519945     0.13200
N119        N  0.15442124  0.45908258  0.43728123    -0.03100
C120        C  0.15270907  0.42392237  0.42598919    -0.00500
C121        C  0.11866279  0.41049009  0.43472590    -0.23400
C122        C  0.09919276  0.43868509  0.45096657    -0.23600
C123        C  0.12197895  0.46862589  0.45242448    -0.00600
H124        H  0.10852284  0.38344872  0.42902864     0.13200
H125        H  0.07141695  0.43736546  0.46042363     0.13200
C126        C  0.40991024  0.05595168  0.31357267     0.03500
C127        C  0.39684809  0.07671982  0.28425752    -0.12600
C128        C  0.36480195  0.06473773  0.26757478     0.01000
C129        C  0.36100257  0.02746137  0.26407826    -0.11100
C130        C  0.36823463  0.00831396  0.29606169     0.03500
C131        C  0.39998908  0.01888709  0.31460753    -0.10600
H132        H  0.40156273  0.10575061  0.28374905     0.09100
H133        H  0.34079029  0.01751739  0.24525640     0.06700
H134        H  0.41019286  0.00225725  0.33646359     0.06500
O135        O  0.31897219  0.25646653  0.05082166    -0.81400
C136        C  0.38098375  0.15266119  0.15214353     0.98000
O137        O  0.37438470  0.14671265  0.11826760    -0.70500
O138        O  0.30481870  0.15645690  0.08585159    -0.74100
Al139      Al  0.35148678  0.17763124  0.07843059     1.49000
C140        C  0.27703803  0.17172402  0.07206053     0.93200
O141        O  0.28350767  0.23806369  0.14582627    -0.80300
O142        O  0.38302295  0.27383708  0.12840554    -0.73900
Al143      Al  0.30402221  0.24512605  0.09849484     1.90100
O144        O  0.33366696  0.24808521  0.17650054    -0.72900
O145        O  0.41733279  0.20779227  0.12015245    -0.72800
O146        O  0.36673930  0.18039383  0.16694363    -0.78500
O147        O  0.39822745  0.19318674  0.06559979    -0.76700
O148        O  0.34261986  0.21633975  0.10724095    -1.12800
O149        O  0.33260962  0.20103776  0.03303784    -0.72000
C150        C  0.32063497  0.23294168  0.02577743     0.98700
C151        C  0.29923607  0.25216619  0.17315823     0.95100
Al152      Al  0.37244151  0.22649290  0.14469167     1.55600
O153        O  0.27277798  0.20580676  0.07755729    -0.76600
C154        C  0.42366481  0.19472304  0.08846759     0.99300
C155        C  0.35952132  0.29886624  0.12648108     0.94200
O156        O  0.32745161  0.29109325  0.11563350    -0.81900
N157        N  0.40986338  0.09456307  0.18040263    -0.03100
C158        C  0.40983199  0.13098438  0.17347898    -0.00500
C159        C  0.43904425  0.14609462  0.19205421    -0.23400
C160        C  0.45692522  0.11793748  0.21025313    -0.23600
C161        C  0.43771754  0.08627272  0.20329376    -0.00600
H162        H  0.44643871  0.17457525  0.19269048     0.13200
H163        H  0.48079009  0.12057987  0.22730550     0.13200
N164        N  0.08703368  0.39536429  0.30274787    -0.03100
C165        C  0.05058921  0.40101400  0.30100133    -0.00500
C166        C  0.03541846  0.38563190  0.33180624    -0.23400
C167        C  0.06366146  0.36998162  0.35190976    -0.23600
C168        C  0.09539928  0.37484096  0.33234605    -0.00600
H169        H  0.50696352  0.38600704  0.33920844     0.13200
H170        H  0.06096947  0.35610662  0.37753546     0.13200
N171        N  0.28451302  0.27138184  0.48009721    -0.03100
C172        C  0.28074665  0.27327380  0.44342246    -0.00500
C173        C  0.29813373  0.24333780  0.42839803    -0.23400
C174        C  0.31371988  0.22365660  0.45671389    -0.23600
C175        C  0.30662135  0.24266871  0.48845151    -0.00600
H176        H  0.29907134  0.23627469  0.39992689     0.13200
H177        H  0.32974544  0.19904724  0.45407808     0.13200
C178        C  0.16172401  0.49499448  0.02830102     0.03500
C179        C  0.13275293  0.49980276  0.05187192    -0.12600
C180        C  0.13975273  0.52032365  0.08305920     0.01000
C181        C  0.16453807  0.04847793  0.08056434    -0.11100
C182        C  0.19074046  0.04803308  0.05268537     0.03500
C183        C  0.18581090  0.52405196  0.02359494    -0.10600
H184        H  0.11283038  0.47832229  0.05348250     0.09100
H185        H  0.16909685  0.06405830  0.10495018     0.06700
H186        H  0.20656986  0.52150842  0.00299949     0.06500
O187        O  0.42377241  0.02349668  0.21367833    -0.81400
C188        C  0.52938777  0.42183673  0.27195094     0.98000
O189        O  0.53283822  0.45633778  0.26874347    -0.70500
O190        O  0.52546315  0.98996716  0.20081748    -0.74100
Al191      Al  0.50145154  0.99549738  0.24662940     1.49000
C192        C  0.51143612  0.00360770  0.17239122     0.93200
O193        O  0.44406741  0.43065428  0.17325062    -0.80300
O194        O  0.40778388  0.44100692  0.27266428    -0.73900
Al195      Al  0.43632341  0.97646233  0.19621745     1.90100
O196        O  0.43532724  0.39622415  0.22079565    -0.72900
O197        O  0.47144368  0.44950278  0.30894282    -0.72800
O198        O  0.50296649  0.40643015  0.25587703    -0.78500
O199        O  0.48192820  0.00589651  0.29321482    -0.76700
O200        O  0.46449485  0.46599105  0.23469375    -1.12800
O201        O  0.47850431  0.04103266  0.22884018    -0.72000
C202        C  0.44686083  0.04866206  0.21692708     0.98700
C203        C  0.43010988  0.40237262  0.18690574     0.95100
Al204      Al  0.45537553  0.42662398  0.26193944     1.55600
O205        O  0.47719975  0.99898429  0.16670792    -0.76600
C206        C  0.48094580  0.98192144  0.31759587     0.99300
C207        C  0.38261094  0.44356639  0.24961858     0.94200
O208        O  0.38986537  0.45706804  0.21837415    -0.81900
C209        C  0.17055657  0.32828539  0.50685320    -0.17400
C210        C  0.15287017  0.36172286  0.01084442    -0.19600
C211        C  0.17263107  0.39265822  0.02121808     0.21100
C212        C  0.20980233  0.38939530  0.03027012    -0.02500
C213        C  0.22752507  0.35595284  0.52630914    -0.05600
C214        C  0.20806447  0.32555332  0.51329537     0.21300
C215        C  0.26547889  0.35388224  0.53185835     0.19500
C216        C  0.28475562  0.38418599  0.54451789    -0.17100
C217        C  0.26678665  0.41704787  0.05003454    -0.19300
C218        C  0.22979081  0.42003722  0.04142941     0.21000
C219        C  0.21303314  0.45367679  0.04177402    -0.32300
C220        C  0.17754478  0.45810696  0.02832228     0.01700
C221        C  0.15650254  0.42709462  0.02107917    -0.23600
C222        C  0.22723058  0.29426243  0.50348566    -0.28200
C223        C  0.26531729  0.29433918  0.50450827     0.07400
C224        C  0.28402053  0.32293619  0.52064620    -0.26900
H225        H  0.15534626  0.30514394  0.49686950     0.12100
H226        H  0.12421467  0.36372308  0.00421886     0.13200
H227        H  0.31394278  0.38296307  0.54826819     0.12300
H228        H  0.28225163  0.44062139  0.05873446     0.11500
H229        H  0.22793117  0.47647534  0.05248736     0.16900
H230        H  0.12784457  0.42972136  0.01527596     0.12800
H231        H  0.21317862  0.27176196  0.49052153     0.15700
H232        H  0.31319288  0.32275060  0.51999095     0.15500
C233        C  0.13906366  0.52209753  0.21757846    -0.17400
C234        C  0.13636565  0.50318322  0.25031974    -0.19600
C235        C  0.13278658  0.46525762  0.24992329     0.21100
C236        C  0.13648759  0.44580711  0.21694711    -0.02500
C237        C  0.14040505  0.46465529  0.18442394    -0.05600
C238        C  0.13925806  0.50300616  0.18448185     0.21300
C239        C  0.14258259  0.44504115  0.15160226     0.19500
C240        C  0.14231962  0.40691375  0.15133654    -0.17100
C241        C  0.13618401  0.38826537  0.18341454    -0.19300
C242        C  0.13185597  0.40775336  0.21586769     0.21000
C243        C  0.11836283  0.39060127  0.24616248    -0.32300
C244        C  0.11180936  0.41012189  0.27774969     0.01700
C245        C  0.12148441  0.44674238  0.28084420    -0.23600
C246        C  0.13686412  0.52133682  0.15143407    -0.28200
C247        C  0.13790357  0.50171885  0.11849290     0.07400
C248        C  0.14311271  0.46374177  0.11928589    -0.26900
H249        H  0.13953325  0.05156710  0.21794077     0.12100
H250        H  0.13468559  0.51821841  0.27566187     0.13200
H251        H  0.14436497  0.39170766  0.12608517     0.12300
H252        H  0.13313733  0.35892435  0.18261656     0.11500
H253        H  0.10811544  0.36349518  0.24375937     0.16900
H254        H  0.11549428  0.46149240  0.30573482     0.12800
H255        H  0.13400910  0.05063853  0.15144066     0.15700
H256        H  0.14636844  0.44798807  0.09467104     0.15500
C257        C  0.29040593  0.11295837  0.16452509    -0.17400
C258        C  0.26148177  0.11346554  0.14060717    -0.19600
C259        C  0.26096870  0.08902044  0.11141488     0.21100
C260        C  0.29014289  0.06526955  0.10485106    -0.02500
C261        C  0.31906597  0.06462733  0.12919440    -0.05600
C262        C  0.31794077  0.08723604  0.16011198     0.21300
C263        C  0.34994411  0.04310929  0.12176993     0.19500
C264        C  0.35014953  0.02031711  0.09112924    -0.17100
C265        C  0.32037438  0.01979082  0.06739183    -0.19300
C266        C  0.29024884  0.04237172  0.07409780     0.21000
C267        C  0.25921230  0.04098446  0.05217313    -0.32300
C268        C  0.22775553  0.06074503  0.06239110     0.01700
C269        C  0.23089568  0.08716971  0.08962206    -0.23600
C270        C  0.34670046  0.08717208  0.18382599    -0.28200
C271        C  0.37951621  0.07255934  0.17246998     0.07400
C272        C  0.38101562  0.04808220  0.14317305    -0.26900
H273        H  0.29198058  0.13331646  0.18579207     0.12100
H274        H  0.23968732  0.13296680  0.14473327     0.13200
H275        H  0.37314073  0.00292912  0.08574142     0.12300
H276        H  0.32086960  0.50177673  0.04416154     0.11500
H277        H  0.25918550  0.52244839  0.02949613     0.16900
H278        H  0.20864984  0.10433625  0.09675117     0.12800
H279        H  0.34695688  0.10674529  0.20597448     0.15700
H280        H  0.40690885  0.03681311  0.13464191     0.15500
C281        C  0.20783733  0.02188664  0.34048580    -0.17400
C282        C  0.23754844  0.02133695  0.31719925    -0.19600
C283        C  0.27124193  0.00817071  0.32942391     0.21100
C284        C  0.27576168  0.49694197  0.36547079    -0.02500
C285        C  0.24570207  0.49645459  0.38861860    -0.05600
C286        C  0.21143667  0.50832840  0.37575111     0.21300
C287        C  0.24921782  0.48116382  0.42349146     0.19500
C288        C  0.28332521  0.46964766  0.43612887    -0.17100
C289        C  0.31366319  0.47185153  0.41355701    -0.19300
C290        C  0.30986343  0.48459090  0.37786916     0.21000
C291        C  0.33969077  0.48569786  0.35456362    -0.32300
C292        C  0.33584961  0.99750393  0.31835928     0.01700
C293        C  0.30049861  0.00639209  0.30596904    -0.23600
C294        C  0.18072913  0.50236673  0.39675615    -0.28200
C295        C  0.18381919  0.48209508  0.42852570     0.07400
C296        C  0.21793713  0.47384268  0.44320279    -0.26900
H297        H  0.18171346  0.03108462  0.33034001     0.12100
H298        H  0.23408460  0.03076763  0.28952646     0.13200
H299        H  0.28628938  0.45799593  0.46299016     0.12300
H300        H  0.33978950  0.46251284  0.42356378     0.11500
H301        H  0.36581639  0.47849121  0.36568379     0.16900
H302        H  0.29505921  0.01380449  0.27827650     0.12800
H303        H  0.15394025  0.50789257  0.38565513     0.15700
H304        H  0.21973444  0.45714840  0.46722786     0.15500
C305        C  0.30324972  0.20110636  0.32483550    -0.17400
C306        C  0.31623764  0.16664222  0.33337769    -0.19600
C307        C  0.30797138  0.13736091  0.31030609     0.21100
C308        C  0.28083089  0.14072672  0.28358275    -0.02500
C309        C  0.26690111  0.17520615  0.27573793    -0.05600
C310        C  0.28115074  0.20572460  0.29425032     0.21300
C311        C  0.24471454  0.17966042  0.24481890     0.19500
C312        C  0.23028790  0.14892956  0.22719792    -0.17100
C313        C  0.24427953  0.11440933  0.23520254    -0.19300
C314        C  0.27323381  0.11141930  0.25988262     0.21000
C315        C  0.29910650  0.08354687  0.25652402    -0.32300
C316        C  0.33119420  0.08535283  0.27740259     0.01700
C317        C  0.33133810  0.10792926  0.30852176    -0.23600
C318        C  0.27757162  0.23984989  0.27883117    -0.28200
C319        C  0.25874629  0.24405719  0.24625427     0.07400
C320        C  0.24154734  0.21422056  0.22965195    -0.26900
H321        H  0.31346054  0.22443433  0.33961234     0.12100
H322        H  0.33650608  0.16398280  0.35464804     0.13200
H323        H  0.21151102  0.15192467  0.20467443     0.12300
H324        H  0.23642995  0.09143769  0.21837658     0.11500
H325        H  0.29641987  0.06361330  0.23491935     0.16900
H326        H  0.35297901  0.10643602  0.32831367     0.12800
H327        H  0.29249882  0.26266671  0.29006280     0.15700
H328        H  0.22840308  0.21748514  0.20354512     0.15500
C329        C  0.38901524  0.06378720  0.44564339    -0.17400
C330        C  0.39390581  0.08121331  0.47902985    -0.19600
C331        C  0.41231204  0.11448786  0.48063732     0.21100
C332        C  0.42273624  0.13204182  0.44817057    -0.02500
C333        C  0.41733613  0.11472201  0.41457960    -0.05600
C334        C  0.40221682  0.07970877  0.41366900     0.21300
C335        C  0.42955519  0.13125349  0.38230063     0.19500
C336        C  0.44385740  0.16659602  0.38363247    -0.17100
C337        C  0.45057363  0.18326523  0.41720208    -0.19300
C338        C  0.44205203  0.16502541  0.44946802     0.21000
C339        C  0.45569394  0.17698785  0.98272091    -0.32300
C340        C  0.44726821  0.15843534  0.01471708     0.01700
C341        C  0.42371234  0.12868925  0.01397330    -0.23600
C342        C  0.40146407  0.06060127  0.38105218    -0.28200
C343        C  0.41597632  0.07537134  0.34879837     0.07400
C344        C  0.42914878  0.11138709  0.34971646    -0.26900
H345        H  0.37639015  0.03716220  0.44501559     0.12100
H346        H  0.38527796  0.06769191  0.50366527     0.13200
H347        H  0.45251098  0.18008725  0.35900776     0.12300
H348        H  0.46453205  0.20920652  0.41796815     0.11500
H349        H  0.47537995  0.19870383  0.98336008     0.16900
H350        H  0.91813988  0.11418710  0.03894940     0.12800
H351        H  0.38866348  0.03434233  0.38132013     0.15700
H352        H  0.44022138  0.12368400  0.32546421     0.15500
C353        C  0.40854292  0.38908509  0.42989278    -0.17400
C354        C  0.40587088  0.40576731  0.39617585    -0.19600
C355        C  0.39264519  0.38603803  0.36633939     0.21100
C356        C  0.38523523  0.34855178  0.36933840    -0.02500
C357        C  0.38836612  0.33171721  0.40311079    -0.05600
C358        C  0.39844184  0.35254824  0.43366268     0.21300
C359        C  0.37974149  0.29456555  0.40665376     0.19500
C360        C  0.36994540  0.27412432  0.37588545    -0.17100
C361        C  0.36522415  0.29130688  0.34243517    -0.19300
C362        C  0.37152271  0.32876160  0.33937656     0.21000
C363        C  0.36099783  0.34762255  0.30829362    -0.32300
C364        C  0.36334390  0.38559076  0.30792655     0.01700
C365        C  0.38252956  0.40398339  0.33496225    -0.23600
C366        C  0.39723376  0.33686358  0.46771171    -0.28200
C367        C  0.38635112  0.30040362  0.47206233     0.07400
C368        C  0.38014192  0.27887876  0.44106889    -0.26900
H369        H  0.41703332  0.40508215  0.45323411     0.12100
H370        H  0.41196243  0.43452101  0.39395366     0.13200
H371        H  0.36427747  0.24531117  0.37810905     0.12300
H372        H  0.35540740  0.27570373  0.31938454     0.11500
H373        H  0.34661831  0.33365688  0.28659279     0.16900
H374        H  0.38531964  0.43301856  0.33353462     0.12800
H375        H  0.40586865  0.35316364  0.49070770     0.15700
H376        H  0.37589639  0.24998810  0.44361093     0.15500
C377        C  0.10505479  0.22872258  0.53406756    -0.17400
C378        C  0.07129729  0.23258066  0.05102183    -0.19600
C379        C  0.04189322  0.24750149  0.53184196     0.21100
C380        C  0.04735573  0.26177508  0.49680732    -0.02500
C381        C  0.08151634  0.25917474  0.48047715    -0.05600
C382        C  0.11000234  0.24067303  0.49827651     0.21300
C383        C  0.08596788  0.27155257  0.44467144     0.19500
C384        C  0.05740014  0.28876151  0.42633315    -0.17100
C385        C  0.02345379  0.29119744  0.44244302    -0.19300
C386        C  0.01805862  0.27642076  0.47695865     0.25400
C387        C  0.98336909  0.27408812  0.49088768    -0.32300
C388        C  0.47705855  0.25714867  0.52442458     0.01700
C389        C  0.00676971  0.24676936  0.04607579    -0.23600
C390        C  0.14077384  0.23053747  0.47820112    -0.28200
C391        C  0.14171000  0.23732145  0.44069572     0.07400
C392        C  0.11688917  0.26192839  0.42577314    -0.26900
H393        H  0.12640621  0.21440713  0.04809385     0.12100
H394        H  0.06764311  0.22184423  0.07814842     0.13200
H395        H  0.06052726  0.29751984  0.39847821     0.12300
H396        H  0.00102473  0.30271885  0.42713729     0.11500
H397        H  0.46117258  0.28522283  0.47508637     0.16900
H398        H  0.50261078  0.23778454  0.07357474     0.12800
H399        H  0.16104046  0.21274946  0.49009768     0.15700
H400        H  0.11781060  0.26919215  0.39765007     0.15500
C401        C  0.91894938  0.44314616  0.05667796    -0.17400
C402        C  0.93891322  0.47538136  0.05816898    -0.19600
C403        C  0.97589984  0.47435236  0.06689671     0.21100
C404        C  0.99398463  0.44061008  0.07012477    -0.02500
C405        C  0.47425444  0.40831520  0.06740432    -0.05600
C406        C  0.43630813  0.40962018  0.06247285     0.21300
C407        C  0.49227023  0.37484861  0.07158997     0.19500
C408        C  0.52997329  0.37362221  0.07730394    -0.17100
C409        C  0.54930651  0.40578513  0.08181263    -0.19300
C410        C  0.53113951  0.43918721  0.07947086     0.21000
C411        C  0.04824367  0.47086973  0.09036805    -0.32300
C412        C  0.02935660  0.00357759  0.09060353     0.01700
C413        C  0.99434346  0.00603339  0.07622050    -0.23600
C414        C  0.41635432  0.37746541  0.06387811    -0.28200
C415        C  0.43396019  0.34361699  0.06815068     0.07400
C416        C  0.47231465  0.34303922  0.07071785    -0.26900
H417        H  0.88992523  0.44444300  0.05171997     0.12100
H418        H  0.92533124  0.50121941  0.05418146     0.13200
H419        H  0.54411796  0.34786311  0.08009560     0.12300
H420        H  0.57801012  0.40455594  0.08848402     0.11500
H421        H  0.07447019  0.46943687  0.10318080     0.16900
H422        H  0.98007672  0.03189250  0.07703715     0.12800
H423        H  0.38718787  0.37930033  0.06122045     0.15700
H424        H  0.48748542  0.31793678  0.07192537     0.15500
C425        C  0.48522087  0.30911808  0.29333636    -0.17400
C426        C  0.45185840  0.31061294  0.27532523    -0.19600
C427        C  0.45049420  0.30825267  0.23734691     0.21100
C428        C  0.48271600  0.30210133  0.21739941    -0.02500
C429        C  0.01610758  0.30112968  0.23534973    -0.05600
C430        C  0.01748248  0.30533775  0.27340945     0.21300
C431        C  0.04823902  0.29759519  0.21495775     0.19500
C432        C  0.04698704  0.29352622  0.17710606    -0.17100
C433        C  0.01384369  0.29505258  0.15918185    -0.19300
C434        C  0.48194832  0.30049253  0.17912472     0.21000
C435        C  0.45015537  0.30919997  0.16135820    -0.32300
C436        C  0.41968924  0.31966225  0.18082356     0.01700
C437        C  0.41849148  0.31617764  0.21858812    -0.23600
C438        C  0.05114332  0.30587692  0.29077456    -0.28200
C439        C  0.08342428  0.30300349  0.27054441     0.07400
C440        C  0.08131562  0.29848730  0.23257471    -0.26900
H441        H  0.48588655  0.31205303  0.32265853     0.12100
H442        H  0.42741659  0.31514107  0.29090077     0.13200
H443        H  0.07167986  0.29039929  0.16133216     0.12300
H444        H  0.01332059  0.29363144  0.12975497     0.11500
H445        H  0.45067641  0.31437183  0.13280444     0.16900
H446        H  0.39442577  0.32495346  0.23319504     0.12800
H447        H  0.05199849  0.30764273  0.32006769     0.15700
H448        H  0.10537739  0.29482466  0.21620336     0.15500
C449        C  0.05266342  0.17406305  0.38008573    -0.17400
C450        C  0.02875036  0.14520671  0.38267363    -0.19600
C451        C  0.03021374  0.11688274  0.35728551     0.21100
C452        C  0.05692426  0.11649386  0.32990779    -0.02500
C453        C  0.08141364  0.14525683  0.32759954    -0.05600
C454        C  0.07903122  0.17397583  0.35272452     0.21300
C455        C  0.10908961  0.14465777  0.30118749     0.19500
C456        C  0.11141860  0.11538478  0.27665470    -0.17100
C457        C  0.08750817  0.08608755  0.27969002    -0.19300
C458        C  0.06124017  0.08586148  0.30716137     0.21000
C459        C  0.04231412  0.05418885  0.31546789    -0.32300
C460        C  0.01754212  0.05436013  0.34428669     0.01700
C461        C  0.00854285  0.08671823  0.36186911    -0.23600
C462        C  0.10281907  0.20258466  0.35008919    -0.28200
C463        C  0.12848263  0.20448268  0.32211850     0.07400
C464        C  0.13314482  0.17390058  0.29919576    -0.26900
H465        H  0.05125129  0.19584803  0.40002978     0.12100
H466        H  0.01057862  0.14397139  0.40566424     0.13200
H467        H  0.13200115  0.11489561  0.25561695     0.12300
H468        H  0.08983325  0.06332300  0.26116410     0.11500
H469        H  0.05053812  0.02864008  0.30322005     0.16900
H470        H  0.99014759  0.08570469  0.38482720     0.12800
H471        H  0.09927949  0.22437520  0.36879742     0.15700
H472        H  0.15366648  0.17326306  0.27826901     0.15500
C473        C  0.19855478  0.28458933  0.12983433    -0.17400
C474        C  0.20309625  0.26783107  0.09593267    -0.19600
C475        C  0.19041540  0.23229329  0.08991388     0.21100
C476        C  0.17088707  0.21447390  0.11748059    -0.02500
C477        C  0.16669222  0.23103896  0.15154262    -0.05600
C478        C  0.18167966  0.26575334  0.15820405     0.21300
C479        C  0.14962996  0.21174658  0.17969512     0.19500
C480        C  0.13510978  0.17712981  0.17339074    -0.17100
C481        C  0.14015706  0.16039619  0.13989373    -0.19300
C482        C  0.15868835  0.17854997  0.11226841     0.21000
C483        C  0.16907191  0.15960273  0.08141473    -0.32300
C484        C  0.19324756  0.17506013  0.05667607     0.01700
C485        C  0.20040117  0.21257770  0.05878312    -0.23600
C486        C  0.18161081  0.27971097  0.19366455    -0.28200
C487        C  0.16878862  0.25822830  0.22239227     0.07400
C488        C  0.14975190  0.22612306  0.21443999    -0.26900
H489        H  0.21008986  0.31132836  0.13445483     0.12100
H490        H  0.21863532  0.28174101  0.07541359     0.13200
H491        H  0.12214079  0.16206173  0.19503748     0.12300
H492        H  0.13203723  0.13235640  0.13637105     0.11500
H493        H  0.16188940  0.13136769  0.07992587     0.16900
H494        H  0.21810147  0.22479269  0.03879745     0.12800
H495        H  0.19240725  0.30651834  0.19894858     0.15700
H496        H  0.13536644  0.21187024  0.23550902     0.15500
N497        N  0.21791327  0.15198191  0.53702808    -0.03100
C498        C  0.25472190  0.15123136  0.54318134    -0.00500
C499        C  0.27013374  0.12692771  0.51863274    -0.23400
C500        C  0.24224302  0.11189954  0.49792042    -0.23600
C501        C  0.20990621  0.12632790  0.51072106    -0.00600
H502        H  0.29866789  0.11994252  0.01665438     0.13200
H503        H  0.24515784  0.09057335  0.97773269     0.13200
N504        N  0.01281954  0.02231208  0.86485600    -0.03100
C505        C  0.02537117  0.01933868  0.89954525    -0.00500
C506        C  0.01504693  0.48556959  0.91249623    -0.23400
C507        C  0.49653770  0.46765289  0.88451184    -0.23600
C508        C  0.49508201  0.99115338  0.85514547    -0.00600
H509        H  0.02061332  0.47483951  0.93925003     0.13200
H510        H  0.48582972  0.44027499  0.88546474     0.13200
N511        N  0.39630409  0.34473658  0.66370661    -0.03100
C512        C  0.40167879  0.38131555  0.66481923    -0.00500
C513        C  0.37569460  0.39718057  0.64247276    -0.23400
C514        C  0.35514047  0.36918817  0.62696633    -0.23600
C515        C  0.36975326  0.33674039  0.63907670    -0.00600
H516        H  0.37209083  0.42600436  0.63769811     0.13200
H517        H  0.33311466  0.37229085  0.60780853     0.13200
C518        C  0.17021694  0.27042141  0.76058489     0.03500
C519        C  0.17183159  0.24337853  0.78733576    -0.12600
C520        C  0.14292590  0.24070722  0.81190268     0.01000
C521        C  0.11911911  0.27048322  0.81527369    -0.11100
C522        C  0.11887821  0.29708013  0.78856578     0.03500
C523        C  0.15026249  0.30157224  0.76782563    -0.10600
H524        H  0.18914417  0.22007787  0.78272495     0.09100
H525        H  0.09502376  0.26805957  0.83157744     0.06700
H526        H  0.15077782  0.32260146  0.74748819     0.06500
O527        O  0.17420323  0.28264363  0.87876774    -0.81400
C528        C  0.27997021  0.38293193  0.82198168     0.98000
O529        O  0.28392126  0.34838637  0.82562349    -0.70500
O530        O  0.27498105  0.31533928  0.89378645    -0.74100
Al531      Al  0.25231799  0.30888507  0.84757618     1.49000
C532        C  0.25999682  0.30161490  0.92152076     0.93200
O533        O  0.19503506  0.37488575  0.91849839    -0.80300
O534        O  0.15792838  0.36259154  0.81833401    -0.73900
Al535      Al  0.18652435  0.32908804  0.89607025     1.90100
O536        O  0.18514234  0.40819075  0.87021845    -0.72900
O537        O  0.22383874  0.35365279  0.78357843    -0.72800
O538        O  0.25289637  0.39789390  0.83726066    -0.78500
O539        O  0.23409507  0.29776142  0.80079713    -0.76700
O540        O  0.21495377  0.33854934  0.85797253    -1.12800
O541        O  0.22857111  0.26302556  0.86586500    -0.72000
C542        C  0.19644231  0.25667517  0.87747360     0.98700
C543        C  0.18103982  0.40292033  0.90439046     0.95100
Al544      Al  0.20587871  0.37731175  0.82985976     1.55600
O545        O  0.22588517  0.30660839  0.92620751    -0.76600
C546        C  0.23436448  0.32119070  0.77594734     0.99300
C547        C  0.13299951  0.36065918  0.84186140     0.94200
O548        O  0.14069950  0.34835965  0.87343294    -0.81900
N549        N  0.04133060  0.03113356  0.61447240    -0.03100
C550        C  0.03374746  0.03128398  0.65067713    -0.00500
C551        C  0.04832546  0.06297684  0.66517824    -0.23400
C552        C  0.06455205  0.08212521  0.63680123    -0.23600
C553        C  0.06081430  0.06136616  0.60549768    -0.00600
H554        H  0.04628508  0.07199796  0.69315157     0.13200
H555        H  0.07673252  0.10867161  0.63893596     0.13200
N556        N  0.15946399  0.21180487  0.91704773    -0.03100
C557        C  0.15160301  0.17527288  0.91556110    -0.00500
C558        C  0.17374302  0.15961896  0.88920563    -0.23400
C559        C  0.19463549  0.18699088  0.87385232    -0.23600
C560        C  0.18440676  0.21934772  0.89023477    -0.00600
H561        H  0.17425001  0.13119020  0.88138794     0.13200
H562        H  0.21346113  0.18381991  0.85147432     0.13200
N563        N  0.33768968  0.40557536  0.78718999    -0.03100
C564        C  0.30112635  0.40476690  0.79342874    -0.00500
C565        C  0.28482696  0.42786640  0.76844056    -0.23400
C566        C  0.31220608  0.44324616  0.74729884    -0.23600
C567        C  0.34502579  0.43031195  0.76043341    -0.00600
H568        H  0.25600393  0.43331995  0.76595130     0.13200
H569        H  0.30842441  0.46315703  0.72606305     0.13200
C570        C  0.41386498  0.30864598  0.56369555     0.03500
C571        C  0.38548702  0.30764957  0.53842841    -0.12600
C572        C  0.38900464  0.28407835  0.00854993     0.01000
C573        C  0.41182771  0.25383300  0.01178623    -0.11100
C574        C  0.43943247  0.25564218  0.03789066     0.03500
C575        C  0.43315579  0.27627269  0.56879681    -0.10600
H576        H  0.36889736  0.33147646  0.53493488     0.09100
H577        H  0.41691968  0.23743791  0.98789193     0.06700
H578        H  0.45317431  0.27449113  0.59012630     0.06500
O579        O  0.14742662  0.11291060  0.52311258    -0.81400
C580        C  0.04651452  0.04797468  0.92142977     0.98000
O581        O  0.08037539  0.05425982  0.91572952    -0.70500
O582        O  0.11068984  0.12441747  0.92350674    -0.74100
Al583      Al  0.11993939  0.07836391  0.94575387     1.49000
C584        C  0.12409511  0.15296519  0.93770259     0.93200
O585        O  0.05212897  0.14621114  0.50470333    -0.80300
O586        O  0.07173640  0.04747061  0.54267103    -0.73900
Al587      Al  0.09960734  0.12681090  0.51207479     1.90100
O588        O  0.02236623  0.09601913  0.51627605    -0.72900
O589        O  0.07953181  0.51258595  0.47765620    -0.72800
O590        O  0.03166998  0.06212409  0.94913008    -0.78500
O591        O  0.13372382  0.03182955  0.96235245    -0.76700
O592        O  0.09136371  0.08749537  0.48430567    -1.12800
O593        O  0.16564142  0.09903922  0.96837493    -0.72000
C594        C  0.17258470  0.11203012  0.50004479     0.98700
C595        C  0.02546423  0.13053713  0.51956867     0.95100
Al596      Al  0.05453310  0.05734791  0.49524487     1.55600
O597        O  0.11943403  0.15794772  0.47182349    -0.76600
C598        C  0.11136757  0.50605694  0.46541709     0.99300
C599        C  0.07331512  0.07136011  0.56738177     0.94200
O600        O  0.08330978  0.10362060  0.55892554    -0.81900
N601        N  0.96955092  0.16376692  0.54583924    -0.03100
C602        C  0.00407271  0.15092924  0.54832348    -0.00500
C603        C  0.01689543  0.15799719  0.58310105    -0.23400
C604        C  0.98913601  0.17513118  0.60223000    -0.23600
C605        C  0.46013602  0.17894819  0.57849995    -0.00600
H606        H  0.04342588  0.15116353  0.59377125     0.13200
H607        H  0.99015648  0.18390565  0.63033180     0.13200
N608        N  0.26175210  0.27756687  0.72741908    -0.03100
C609        C  0.27946774  0.28128527  0.69519639    -0.00500
C610        C  0.27899501  0.31783780  0.68602654    -0.23400
C611        C  0.26109553  0.33662967  0.71357408    -0.23600
C612        C  0.25071007  0.31134886  0.73926417    -0.00600
H613        H  0.29108998  0.32999149  0.66228845     0.13200
H614        H  0.25730852  0.36580300  0.71519873     0.13200
N615        N  0.15442031  0.45908285  0.93728096    -0.03100
C616        C  0.15270846  0.42392264  0.92598883    -0.00500
C617        C  0.11866223  0.41049017  0.93472551    -0.23400
C618        C  0.09919200  0.43868505  0.95096625    -0.23600
C619        C  0.12197804  0.46862596  0.95242430    -0.00600
H620        H  0.10852246  0.38344873  0.92902828     0.13200
H621        H  0.07141621  0.43736525  0.96042332     0.13200
C622        C  0.40991045  0.05595238  0.81357284     0.03500
C623        C  0.39684787  0.07672057  0.78425790    -0.12600
C624        C  0.36480161  0.06473840  0.76757553     0.01000
C625        C  0.36100260  0.02746203  0.76407873    -0.11100
C626        C  0.36823477  0.00831455  0.79606210     0.03500
C627        C  0.39998930  0.01888774  0.81460782    -0.10600
H628        H  0.40156234  0.10575140  0.78374946     0.09100
H629        H  0.34079039  0.01751802  0.74525681     0.06700
H630        H  0.41019315  0.00225790  0.83646387     0.06500
O631        O  0.31897238  0.25646578  0.55082118    -0.81400
C632        C  0.38098362  0.15266076  0.65214355     0.98000
O633        O  0.37438460  0.14671215  0.61826764    -0.70500
O634        O  0.30481861  0.15645637  0.58585138    -0.74100
Al635      Al  0.35148670  0.17763062  0.57843053     1.49000
C636        C  0.27703799  0.17172356  0.57206026     0.93200
O637        O  0.28350742  0.23806357  0.64582592    -0.80300
O638        O  0.38302289  0.27383642  0.62840565    -0.73900
Al639      Al  0.30402222  0.24512562  0.59849449     1.90100
O640        O  0.33366665  0.24808472  0.67650042    -0.72900
O641        O  0.41733263  0.20779161  0.62015259    -0.72800
O642        O  0.36673894  0.18039329  0.66694364    -0.78500
O643        O  0.39822739  0.19318606  0.56559989    -0.76700
O644        O  0.34261973  0.21633920  0.60724083    -1.12800
O645        O  0.33260961  0.20103691  0.53303762    -0.72000
C646        C  0.32063500  0.23294079  0.52577704     0.98700
C647        C  0.29923580  0.25216597  0.67315795     0.95100
Al648      Al  0.37244127  0.22649231  0.64469169     1.55600
O649        O  0.27277797  0.20580631  0.57755699    -0.76600
C650        C  0.42366469  0.19472231  0.58846777     0.99300
C651        C  0.35952141  0.29886569  0.62648115     0.94200
O652        O  0.32745175  0.29109286  0.61563320    -0.81900
N653        N  0.40986271  0.09456337  0.68040449    -0.03100
C654        C  0.40983215  0.13098426  0.67347890    -0.00500
C655        C  0.43904617  0.14609436  0.69205142    -0.23400
C656        C  0.45692743  0.11793744  0.71025047    -0.23600
C657        C  0.43771822  0.08627299  0.70329395    -0.00600
H658        H  0.44644185  0.17457471  0.69268554     0.13200
H659        H  0.48079385  0.12057976  0.72730068     0.13200
N660        N  0.08703434  0.39536496  0.80274832    -0.03100
C661        C  0.05058989  0.40101478  0.80100176    -0.00500
C662        C  0.03541906  0.38563288  0.83180672    -0.23400
C663        C  0.06366196  0.36998250  0.85191027    -0.23600
C664        C  0.09539977  0.37484157  0.83234648    -0.00600
H665        H  0.50696410  0.38600803  0.83920891     0.13200
H666        H  0.06096987  0.35610748  0.87753596     0.13200
N667        N  0.28451272  0.27138258  0.98009761    -0.03100
C668        C  0.28074717  0.27327491  0.94342280    -0.00500
C669        C  0.29813523  0.24333953  0.92839835    -0.23400
C670        C  0.31372116  0.22365829  0.95671425    -0.23600
C671        C  0.30662157  0.24266982  0.98845193    -0.00600
H672        H  0.29907370  0.23627688  0.89992715     0.13200
H673        H  0.32974738  0.19904935  0.95407846     0.13200
C674        C  0.16172475  0.49499344  0.52830076     0.03500
C675        C  0.13275371  0.49980179  0.55187171    -0.12600
C676        C  0.13975365  0.52032264  0.58305898     0.01000
C677        C  0.16453840  0.04847847  0.58056459    -0.11100
C678        C  0.19074114  0.04803373  0.55268594     0.03500
C679        C  0.18581156  0.52405094  0.52359445    -0.10600
H680        H  0.11283114  0.47832136  0.55348226     0.09100
H681        H  0.16909680  0.06405893  0.60495042     0.06700
H682        H  0.20657046  0.52150738  0.50299897     0.06500
O683        O  0.42377307  0.02349708  0.71367931    -0.81400
C684        C  0.52938848  0.42183708  0.77195112     0.98000
O685        O  0.53283875  0.45633810  0.76874343    -0.70500
O686        O  0.52546360  0.98996707  0.70081736    -0.74100
Al687      Al  0.50145215  0.99549742  0.74662933     1.49000
C688        C  0.51143648  0.00360788  0.67239126     0.93200
O689        O  0.44406824  0.43065349  0.67325047    -0.80300
O690        O  0.40778444  0.44100664  0.77266376    -0.73900
Al691      Al  0.43632376  0.97646292  0.69621766     1.90100
O692        O  0.43532820  0.39622362  0.72079569    -0.72900
O693        O  0.47144408  0.44950300  0.80894255    -0.72800
O694        O  0.50296734  0.40643023  0.75587723    -0.78500
O695        O  0.48192874  0.00589654  0.79321468    -0.76700
O696        O  0.46449544  0.46599080  0.73469344    -1.12800
O697        O  0.47850522  0.04103291  0.72884014    -0.72000
C698        C  0.44686158  0.04866242  0.71692752     0.98700
C699        C  0.43011075  0.40237188  0.68690576     0.95100
Al700      Al  0.45537622  0.42662384  0.76193929     1.55600
O701        O  0.47720003  0.99898488  0.66670815    -0.76600
C702        C  0.48094633  0.98192142  0.81759569     0.99300
C703        C  0.38261152  0.44356613  0.74961803     0.94200
O704        O  0.38986603  0.45706760  0.71837355    -0.81900
C705        C  0.17055588  0.32828625  0.00685291    -0.17400
C706        C  0.15287089  0.36172197  0.51084483    -0.19600
C707        C  0.17263182  0.39265725  0.52121857     0.21100
C708        C  0.20980303  0.38939429  0.53027079    -0.02500
C709        C  0.22752438  0.35595383  0.02630860    -0.05600
C710        C  0.20806381  0.32555421  0.01329505     0.21300
C711        C  0.26547817  0.35388324  0.03185793     0.19500
C712        C  0.28475497  0.38418714  0.04451702    -0.17100
C713        C  0.26678725  0.41704670  0.55003570    -0.19300
C714        C  0.22979147  0.42003618  0.54143024     0.21000
C715        C  0.21303384  0.45367583  0.54177457    -0.32300
C716        C  0.17754561  0.45810597  0.52832241     0.01700
C717        C  0.15650339  0.42709365  0.52107935    -0.23600
C718        C  0.22722999  0.29426321  0.00348563    -0.28200
C719        C  0.26531672  0.29433990  0.00450852     0.07400
C720        C  0.28401984  0.32293703  0.02064635    -0.26900
H721        H  0.15534554  0.30514472  0.99686948     0.12100
H722        H  0.12421541  0.36372227  0.50421917     0.13200
H723        H  0.31394213  0.38296428  0.04826718     0.12300
H724        H  0.28225217  0.44062013  0.55873593     0.11500
H725        H  0.22793174  0.47647441  0.55248797     0.16900
H726        H  0.12784545  0.42972040  0.51527592     0.12800
H727        H  0.21317810  0.27176263  0.99052164     0.15700
H728        H  0.31319219  0.32275139  0.01999136     0.15500
C729        C  0.13906610  0.52209694  0.71757831    -0.17400
C730        C  0.13636826  0.50318284  0.75031972    -0.19600
C731        C  0.13278859  0.46525729  0.74992346     0.21100
C732        C  0.13648915  0.44580660  0.71694732    -0.02500
C733        C  0.14040647  0.46465457  0.68442401    -0.05600
C734        C  0.13925986  0.50300544  0.68448176     0.21300
C735        C  0.14258335  0.44504028  0.65160236     0.19500
C736        C  0.14232001  0.40691289  0.65133685    -0.17100
C737        C  0.13618455  0.38826473  0.68341501    -0.19300
C738        C  0.13185696  0.40775292  0.71586810     0.21000
C739        C  0.11836351  0.39060122  0.74616296    -0.32300
C740        C  0.11181019  0.41012212  0.77775003     0.01700
C741        C  0.12148598  0.44674242  0.78084444    -0.23600
C742        C  0.13686567  0.52133597  0.65143392    -0.28200
C743        C  0.13790456  0.50171791  0.61849277     0.07400
C744        C  0.14311319  0.46374074  0.61928586    -0.26900
H745        H  0.13953369  0.05156777  0.71794069     0.12100
H746        H  0.13468860  0.51821815  0.77566179     0.13200
H747        H  0.14436490  0.39170664  0.62608552     0.12300
H748        H  0.13313744  0.35892377  0.68261715     0.11500
H749        H  0.10811565  0.36349528  0.74375997     0.16900
H750        H  0.11549604  0.46149265  0.80573499     0.12800
H751        H  0.13400938  0.05063897  0.65144067     0.15700
H752        H  0.14636837  0.44798688  0.59467105     0.15500
C753        C  0.29040556  0.11296009  0.66452649    -0.17400
C754        C  0.26148158  0.11346706  0.64060831    -0.19600
C755        C  0.26096866  0.08902159  0.61141628     0.21100
C756        C  0.29014279  0.06527052  0.60485299    -0.02500
C757        C  0.31906546  0.06462821  0.62919679    -0.05600
C758        C  0.31794021  0.08723743  0.66011402     0.21300
C759        C  0.34994323  0.04310937  0.62177321     0.19500
C760        C  0.35014882  0.02031677  0.59113284    -0.17100
C761        C  0.32037433  0.01979107  0.56739465    -0.19300
C762        C  0.29024905  0.04237250  0.57409986     0.21000
C763        C  0.25921293  0.04098542  0.55217463    -0.32300
C764        C  0.22775602  0.06074591  0.56239220     0.01700
C765        C  0.23089577  0.08717058  0.58962327    -0.23600
C766        C  0.34669970  0.08717351  0.68382831    -0.28200
C767        C  0.37951525  0.07255974  0.67247299     0.07400
C768        C  0.38101442  0.04808182  0.64317675    -0.26900
H769        H  0.29198010  0.13331840  0.68579328     0.12100
H770        H  0.23968717  0.13296846  0.64473400     0.13200
H771        H  0.37313963  0.00292803  0.58574590     0.12300
H772        H  0.32086969  0.50177491  0.54416250     0.11500
H773        H  0.25918608  0.52244716  0.52949602     0.16900
H774        H  0.20864982  0.10433695  0.59675230     0.12800
H775        H  0.34695632  0.10674733  0.70597628     0.15700
H776        H  0.40690751  0.03681210  0.63464608     0.15500
C777        C  0.20783742  0.02188759  0.84048598    -0.17400
C778        C  0.23754866  0.02133808  0.81719960    -0.19600
C779        C  0.27124210  0.00817181  0.82942436     0.21100
C780        C  0.27576106  0.49694349  0.86547246    -0.02500
C781        C  0.24570143  0.49645636  0.88862020    -0.05600
C782        C  0.21143620  0.50833067  0.87575272     0.21300
C783        C  0.24921683  0.48116477  0.92349274     0.19500
C784        C  0.28332399  0.46964802  0.93613016    -0.17100
C785        C  0.31366201  0.47185158  0.91355838    -0.19300
C786        C  0.30986246  0.48459125  0.87787060     0.21000
C787        C  0.33968965  0.48569703  0.85456483    -0.32300
C788        C  0.33584975  0.99750473  0.81835983     0.01700
C789        C  0.30049876  0.00639280  0.80596952    -0.23600
C790        C  0.18072841  0.50236817  0.89675716    -0.28200
C791        C  0.18381825  0.48209556  0.92852612     0.07400
C792        C  0.21793598  0.47384307  0.94320350    -0.26900
H793        H  0.18171356  0.03108550  0.83034008     0.12100
H794        H  0.23408494  0.03076877  0.78952679     0.13200
H795        H  0.28628789  0.45799576  0.96299125     0.12300
H796        H  0.33978808  0.46251214  0.92356502     0.11500
H797        H  0.36581502  0.47848931  0.86568480     0.16900
H798        H  0.29505934  0.01380475  0.77827684     0.12800
H799        H  0.15393964  0.50789415  0.88565597     0.15700
H800        H  0.21973306  0.45714808  0.96722806     0.15500
C801        C  0.30325003  0.20110705  0.82483610    -0.17400
C802        C  0.31623765  0.16664288  0.83337868    -0.19600
C803        C  0.30797119  0.13736140  0.81030733     0.21100
C804        C  0.28083062  0.14072716  0.78358404    -0.02500
C805        C  0.26690114  0.17520664  0.77573887    -0.05600
C806        C  0.28115111  0.20572516  0.79425087     0.21300
C807        C  0.24471453  0.17966077  0.74481986     0.19500
C808        C  0.23028761  0.14892988  0.72719919    -0.17100
C809        C  0.24427907  0.11440966  0.73520402    -0.19300
C810        C  0.27323333  0.11141964  0.75988412     0.21000
C811        C  0.29910597  0.08354720  0.75652547    -0.32300
C812        C  0.33119379  0.08535320  0.77740384     0.01700
C813        C  0.33133787  0.10792967  0.80852300    -0.23600
C814        C  0.27757218  0.23985032  0.77883138    -0.28200
C815        C  0.25874680  0.24405740  0.74625450     0.07400
C816        C  0.24154763  0.21422073  0.72965250    -0.26900
H817        H  0.31346101  0.22443512  0.83961270     0.12100
H818        H  0.33650604  0.16398351  0.85464907     0.13200
H819        H  0.21151079  0.15192493  0.70467566     0.12300
H820        H  0.23642944  0.09143801  0.71837808     0.11500
H821        H  0.29641927  0.06361371  0.73492077     0.16900
H822        H  0.35297894  0.10643650  0.82831474     0.12800
H823        H  0.29249943  0.26266721  0.79006282     0.15700
H824        H  0.22840338  0.21748510  0.70354566     0.15500
C825        C  0.38901514  0.06378870  0.94564331    -0.17400
C826        C  0.39390541  0.08121505  0.97902968    -0.19600
C827        C  0.41231177  0.11448951  0.98063704     0.21100
C828        C  0.42273622  0.13204326  0.94817027    -0.02500
C829        C  0.41733628  0.11472327  0.91457936    -0.05600
C830        C  0.40221703  0.07971001  0.91366893     0.21300
C831        C  0.42955553  0.13125453  0.88230035     0.19500
C832        C  0.44385766  0.16659711  0.88363206    -0.17100
C833        C  0.45057391  0.18326642  0.91720165    -0.19300
C834        C  0.44205226  0.16502671  0.94946765     0.21000
C835        C  0.45569351  0.17698671  0.48272127    -0.32300
C836        C  0.44726802  0.15843410  0.51471743     0.01700
C837        C  0.42371255  0.12868766  0.51397360    -0.23600
C838        C  0.40146456  0.06060223  0.88105228    -0.28200
C839        C  0.41597681  0.07537213  0.84879841     0.07400
C840        C  0.42914925  0.11138791  0.84971630    -0.26900
H841        H  0.37639002  0.03716372  0.94501562     0.12100
H842        H  0.38527734  0.06769384  0.00366510     0.13200
H843        H  0.45251127  0.18008825  0.85900731     0.12300
H844        H  0.46453240  0.20920768  0.91796766     0.11500
H845        H  0.47537933  0.19870284  0.48336041     0.16900
H846        H  0.91814028  0.11418546  0.53894968     0.12800
H847        H  0.38866410  0.03434323  0.88132039     0.15700
H848        H  0.44022189  0.12368466  0.82546397     0.15500
C849        C  0.40854419  0.38908544  0.92989173    -0.17400
C850        C  0.40587200  0.40576761  0.89617478    -0.19600
C851        C  0.39264613  0.38603829  0.86633845     0.21100
C852        C  0.38523634  0.34855202  0.86933750    -0.02500
C853        C  0.38836746  0.33171748  0.90310986    -0.05600
C854        C  0.39844311  0.35254860  0.93366172     0.21300
C855        C  0.37974298  0.29456579  0.90665285     0.19500
C856        C  0.36994700  0.27412447  0.87588457    -0.17100
C857        C  0.36522544  0.29130702  0.84243434    -0.19300
C858        C  0.37152365  0.32876179  0.83937576     0.21000
C859        C  0.36099829  0.34762271  0.80829299    -0.32300
C860        C  0.36334422  0.38559091  0.80792596     0.01700
C861        C  0.38253007  0.40398361  0.83496147    -0.23600
C862        C  0.39723481  0.33686402  0.96771079    -0.28200
C863        C  0.38635205  0.30040409  0.97206142     0.07400
C864        C  0.38014329  0.27887910  0.94106800    -0.26900
H865        H  0.41703465  0.40508255  0.95323300     0.12100
H866        H  0.41196346  0.43452132  0.89395252     0.13200
H867        H  0.36427926  0.24531130  0.87810818     0.12300
H868        H  0.35540865  0.27570382  0.81938374     0.11500
H869        H  0.34661862  0.33365701  0.78659227     0.16900
H870        H  0.38531994  0.43301882  0.83353383     0.12800
H871        H  0.40586947  0.35316416  0.99070681     0.15700
H872        H  0.37589784  0.24998842  0.94361006     0.15500
C873        C  0.10505477  0.22872256  0.03406766    -0.17400
C874        C  0.07129731  0.23258041  0.55102176    -0.19600
C875        C  0.04189335  0.24750212  0.03184209     0.21100
C876        C  0.04735602  0.26177576  0.99680749    -0.02500
C877        C  0.08151663  0.25917505  0.98047731    -0.05600
C878        C  0.11000248  0.24067310  0.99827666     0.21300
C879        C  0.08596826  0.27155281  0.94467159     0.19500
C880        C  0.05740072  0.28876210  0.92633334    -0.17100
C881        C  0.02345439  0.29119843  0.94244323    -0.19300
C882        C  0.01805906  0.27642178  0.97695885     0.25400
C883        C  0.98336947  0.27408941  0.99088786    -0.32300
C884        C  0.47705879  0.25714984  0.02442467     0.01700
C885        C  0.00676963  0.24676842  0.54607566    -0.23600
C886        C  0.14077401  0.23053741  0.97820132    -0.28200
C887        C  0.14171028  0.23732146  0.94069593     0.07400
C888        C  0.11688946  0.26192834  0.92577329    -0.26900
H889        H  0.12640640  0.21440739  0.54809378     0.12100
H890        H  0.06764327  0.22184400  0.57814838     0.13200
H891        H  0.06052796  0.29752048  0.89847843     0.12300
H892        H  0.00102546  0.30272006  0.92713748     0.11500
H893        H  0.46117310  0.28522431  0.97508653     0.16900
H894        H  0.50261077  0.23778371  0.57357466     0.12800
H895        H  0.16104051  0.21274930  0.99009788     0.15700
H896        H  0.11781097  0.26919200  0.89765020     0.15500
C897        C  0.91894907  0.44314518  0.55668061    -0.17400
C898        C  0.93891278  0.47538049  0.55817133    -0.19600
C899        C  0.97589963  0.47435164  0.56689803     0.21100
C900        C  0.99398467  0.44060942  0.57012550    -0.02500
C901        C  0.47425457  0.40831440  0.56740546    -0.05600
C902        C  0.43630816  0.40961926  0.56247471     0.21300
C903        C  0.49227057  0.37484785  0.57159049     0.19500
C904        C  0.52997377  0.37362160  0.57730363    -0.17100
C905        C  0.54930697  0.40578461  0.58181193    -0.19300
C906        C  0.53113982  0.43918665  0.57947065     0.21000
C907        C  0.04824416  0.47086932  0.59036720    -0.32300
C908        C  0.02935553  0.00357891  0.59060318     0.01700
C909        C  0.99434190  0.00603493  0.57622135    -0.23600
C910        C  0.41635454  0.37746438  0.56387990    -0.28200
C911        C  0.43396060  0.34361599  0.56815169     0.07400
C912        C  0.47231511  0.34303833  0.57071837    -0.26900
H913        H  0.88992482  0.44444183  0.55172322     0.12100
H914        H  0.92533061  0.50121849  0.55418418     0.13200
H915        H  0.54411863  0.34786257  0.58009477     0.12300
H916        H  0.57801076  0.40455551  0.58848258     0.11500
H917        H  0.07447098  0.46943653  0.60317932     0.16900
H918        H  0.98007486  0.03189381  0.57703950     0.12800
H919        H  0.38718805  0.37929919  0.56122265     0.15700
H920        H  0.48748596  0.31793591  0.57192538     0.15500
C921        C  0.48522174  0.30911961  0.79333622    -0.17400
C922        C  0.45185920  0.31061401  0.77532522    -0.19600
C923        C  0.45049480  0.30825262  0.73734699     0.21100
C924        C  0.48271647  0.30210063  0.71739950    -0.02500
C925        C  0.01610813  0.30112934  0.73534967    -0.05600
C926        C  0.01748321  0.30533849  0.77340926     0.21300
C927        C  0.04823949  0.29759420  0.71495765     0.19500
C928        C  0.04698731  0.29352416  0.67710606    -0.17100
C929        C  0.01384387  0.29505020  0.65918195    -0.19300
C930        C  0.48194860  0.30049090  0.67912485     0.21000
C931        C  0.45015567  0.30919835  0.66135832    -0.32300
C932        C  0.41968971  0.31966129  0.68082357     0.01700
C933        C  0.41849201  0.31617724  0.71858819    -0.23600
C934        C  0.05114409  0.30587792  0.79077423    -0.28200
C935        C  0.08342497  0.30300389  0.77054405     0.07400
C936        C  0.08131618  0.29848686  0.73257444    -0.26900
H937        H  0.48588758  0.31205542  0.82265829     0.12100
H938        H  0.42741752  0.31514274  0.79090075     0.13200
H939        H  0.07168005  0.29039671  0.66133214     0.12300
H940        H  0.01332067  0.29362837  0.62975507     0.11500
H941        H  0.45067672  0.31436993  0.63280451     0.16900
H942        H  0.39442643  0.32495351  0.73319501     0.12800
H943        H  0.05199936  0.30764431  0.82006730     0.15700
H944        H  0.10537790  0.29482394  0.71620309     0.15500
C945        C  0.05266231  0.17406357  0.88008482    -0.17400
C946        C  0.02874967  0.14520685  0.88267268    -0.19600
C947        C  0.03021363  0.11688281  0.85728470     0.21100
C948        C  0.05692439  0.11649415  0.82990725    -0.02500
C949        C  0.08141338  0.14525750  0.82759905    -0.05600
C950        C  0.07903033  0.17397665  0.85272381     0.21300
C951        C  0.10908968  0.14465857  0.80118738     0.19500
C952        C  0.11141927  0.11538551  0.77665474    -0.17100
C953        C  0.08750912  0.08608803  0.77968989    -0.19300
C954        C  0.06124092  0.08586171  0.80716103     0.21000
C955        C  0.04231519  0.05418883  0.81546753    -0.32300
C956        C  0.01754289  0.05435996  0.84428610     0.01700
C957        C  0.00854306  0.08671804  0.86186824    -0.23600
C958        C  0.10281793  0.20258577  0.85008861    -0.28200
C959        C  0.12848215  0.20448367  0.82211843     0.07400
C960        C  0.13314480  0.17390145  0.79919595    -0.26900
H961        H  0.05124971  0.19584856  0.90002882     0.12100
H962        H  0.01057787  0.14397129  0.90566319     0.13200
H963        H  0.13200210  0.11489649  0.75561727     0.12300
H964        H  0.08983456  0.06332352  0.76116401     0.11500
H965        H  0.05053955  0.02864012  0.80321980     0.16900
H966        H  0.99014757  0.08570439  0.88482614     0.12800
H967        H  0.09927780  0.22437635  0.86879669     0.15700
H968        H  0.15366690  0.17326374  0.77826963     0.15500
C969        C  0.19855515  0.28458885  0.62983418    -0.17400
C970        C  0.20309650  0.26783056  0.59593253    -0.19600
C971        C  0.19041558  0.23229281  0.58991380     0.21100
C972        C  0.17088729  0.21447346  0.61748057    -0.02500
C973        C  0.16669259  0.23103854  0.65154263    -0.05600
C974        C  0.18168006  0.26575292  0.65820394     0.21300
C975        C  0.14963042  0.21174623  0.67969522     0.19500
C976        C  0.13511027  0.17712942  0.67339096    -0.17100
C977        C  0.14015739  0.16039579  0.63989391    -0.19300
C978        C  0.15868845  0.17854958  0.61226843     0.21000
C979        C  0.16907182  0.15960234  0.58141466    -0.32300
C980        C  0.19324753  0.17505965  0.55667599     0.01700
C981        C  0.20040123  0.21257719  0.55878302    -0.23600
C982        C  0.18161128  0.27971065  0.69366438    -0.28200
C983        C  0.16878909  0.25822813  0.72239220     0.07400
C984        C  0.14975240  0.22612284  0.71444006    -0.26900
H985        H  0.21009034  0.31132783  0.63445464     0.12100
H986        H  0.21863558  0.28174045  0.57541344     0.13200
H987        H  0.12214149  0.16206133  0.69503781     0.12300
H988        H  0.13203780  0.13235592  0.63637137     0.11500
H989        H  0.16188922  0.13136732  0.57992582     0.16900
H990        H  0.21810153  0.22479213  0.53879733     0.12800
H991        H  0.19240772  0.30651805  0.69894829     0.15700
H992        H  0.13536690  0.21187014  0.73550914     0.15500
N993        N  0.21797679  0.65194793  0.03698321    -0.03100
C994        C  0.25478482  0.65119582  0.04314421    -0.00500
C995        C  0.27019620  0.62687612  0.01861060    -0.23400
C996        C  0.24230639  0.61184197  0.99790037    -0.23600
C997        C  0.20997082  0.62628587  0.01068599    -0.00600
H998        H  0.29872919  0.61988267  0.51664149     0.13200
H999        H  0.24522019  0.59050244  0.47772520     0.13200
N1000       N  0.01291027  0.52227626  0.36484772    -0.03100
C1001       C  0.02543352  0.51933101  0.39954880    -0.00500
C1002       C  0.01498059  0.98557311  0.41247919    -0.23400
C1003       C  0.49645430  0.96767705  0.38449321    -0.23600
C1004       C  0.49517190  0.49111466  0.35515344    -0.00600
H1005       H  0.02055987  0.97482519  0.43922311     0.13200
H1006       H  0.48574844  0.94029818  0.38543438     0.13200
N1007       N  0.39627314  0.84472212  0.16373626    -0.03100
C1008       C  0.40170206  0.88129558  0.16480271    -0.00500
C1009       C  0.37576574  0.89716644  0.14240556    -0.23400
C1010       C  0.35519847  0.86918144  0.12690522    -0.23600
C1011       C  0.36975973  0.83673121  0.13906576    -0.00600
H1012       H  0.37220758  0.92598839  0.13758709     0.13200
H1013       H  0.33320600  0.87228764  0.10771392     0.13200
C1014       C  0.17019347  0.77045108  0.26053691     0.03500
C1015       C  0.17180172  0.74345692  0.28733822    -0.12600
C1016       C  0.14287945  0.74080890  0.31189255     0.01000
C1017       C  0.11908631  0.77059645  0.31522422    -0.11100
C1018       C  0.11883740  0.79714296  0.28846544     0.03500
C1019       C  0.15020168  0.80159719  0.26768915    -0.10600
H1020       H  0.18914554  0.72016883  0.28278453     0.09100
H1021       H  0.09499635  0.76821130  0.33153955     0.06700
H1022       H  0.15068280  0.82256408  0.24728705     0.06500
O1023       O  0.17422528  0.78267031  0.37872286    -0.81400
C1024       C  0.27995254  0.88297294  0.32191537     0.98000
O1025       O  0.28392046  0.84842959  0.32557493    -0.70500
O1026       O  0.27500786  0.81535796  0.39374595    -0.74100
Al1027     Al  0.25233199  0.80891396  0.34753168     1.49000
C1028       C  0.26003086  0.80162895  0.42148401     0.93200
O1029       O  0.19505492  0.87491144  0.41845919    -0.80300
O1030       O  0.15792314  0.86258062  0.31829268    -0.73900
Al1031     Al  0.18654635  0.82910917  0.39603321     1.90100
O1032       O  0.18512671  0.90820340  0.37017540    -0.72900
O1033       O  0.22383653  0.85367073  0.28352467    -0.72800
O1034       O  0.25287741  0.89793167  0.33719506    -0.78500
O1035       O  0.23410123  0.79778802  0.30075483    -0.76700
O1036       O  0.21496682  0.83857370  0.35793145    -1.12800
O1037       O  0.22858987  0.76304700  0.36581781    -0.72000
C1038       C  0.19645779  0.75669734  0.37741924     0.98700
C1039       C  0.18103627  0.90293623  0.40435115     0.95100
Al1040     Al  0.20586941  0.87732714  0.32980993     1.55600
O1041       O  0.22591716  0.80662089  0.42616985    -0.76600
C1042       C  0.23437402  0.82121086  0.27590024     0.99300
C1043       C  0.13300306  0.86067252  0.34183149     0.94200
O1044       O  0.14071353  0.84838263  0.37340493    -0.81900
N1045       N  0.04132943  0.53112716  0.11446834    -0.03100
C1046       C  0.03375373  0.53126138  0.15067745    -0.00500
C1047       C  0.04837061  0.56293117  0.16519165    -0.23400
C1048       C  0.06461379  0.58207967  0.13682339    -0.23600
C1049       C  0.06084688  0.56134510  0.10550769    -0.00600
H1050       H  0.04635043  0.57193613  0.19317168     0.13200
H1051       H  0.07683216  0.60860807  0.13897362     0.13200
N1052       N  0.15947074  0.71182754  0.41698514    -0.03100
C1053       C  0.15160084  0.67529613  0.41550746    -0.00500
C1054       C  0.17371550  0.65964269  0.38913019    -0.23400
C1055       C  0.19460864  0.68701027  0.37376745    -0.23600
C1056       C  0.18440508  0.71936742  0.39016385    -0.00600
H1057       H  0.17421207  0.63121434  0.38131063     0.13200
H1058       H  0.21342079  0.68383581  0.35137888     0.13200
N1059       N  0.33765475  0.90560583  0.28709630    -0.03100
C1060       C  0.30109513  0.90480306  0.29334637    -0.00500
C1061       C  0.28479277  0.92789153  0.26834842    -0.23400
C1062       C  0.31217082  0.94325643  0.24719078    -0.23600
C1063       C  0.34499212  0.93032173  0.26032440    -0.00600
H1064       H  0.25596972  0.93334597  0.26586134     0.13200
H1065       H  0.30838672  0.96315551  0.22594427     0.13200
C1066       C  0.41388461  0.80854223  0.06362245     0.03500
C1067       C  0.38555333  0.80761888  0.03829376    -0.12600
C1068       C  0.38906362  0.78405999  0.50840534     0.01000
C1069       C  0.41185923  0.75379445  0.51163200    -0.11100
C1070       C  0.43945073  0.75557221  0.53774784     0.03500
C1071       C  0.43314729  0.77614685  0.06868060    -0.10600
H1072       H  0.36897364  0.83145344  0.03480331     0.09100
H1073       H  0.41695715  0.73741895  0.48772684     0.06700
H1074       H  0.45312060  0.77428082  0.09004082     0.06500
O1075       O  0.14749990  0.61284957  0.02309230    -0.81400
C1076       C  0.04655937  0.54798457  0.42142428     0.98000
O1077       O  0.08041853  0.55426647  0.41572723    -0.70500
O1078       O  0.11070948  0.62443055  0.42350127    -0.74100
Al1079     Al  0.11997615  0.57837152  0.44574208     1.49000
C1080       C  0.12412668  0.65297795  0.43768850     0.93200
O1081       O  0.05222541  0.64623246  0.00475193    -0.80300
O1082       O  0.07175465  0.54747072  0.04267154    -0.73900
Al1083     Al  0.09968907  0.62679736  0.01208621     1.90100
O1084       O  0.02242115  0.59605174  0.01627922    -0.72900
O1085       O  0.07949610  0.01256981  0.97765092    -0.72800
O1086       O  0.03171228  0.56214274  0.44912022    -0.78500
O1087       O  0.13376295  0.53183876  0.46234643    -0.76700
O1088       O  0.09141095  0.58750025  0.98430541    -1.12800
O1089       O  0.16568825  0.59904130  0.46833476    -0.72000
C1090       C  0.17264725  0.61199654  0.00001330     0.98700
C1091       C  0.02555307  0.63056449  0.01960912     0.95100
Al1092     Al  0.05457018  0.55736526  0.99524268     1.55600
O1093       O  0.11951257  0.65794455  0.97182185    -0.76600
C1094       C  0.11133003  0.00604508  0.96540638     0.99300
C1095       C  0.07335663  0.57134814  0.06739115     0.94200
O1096       O  0.08338880  0.60360045  0.05894355    -0.81900
N1097       N  0.96964886  0.66378556  0.04589227    -0.03100
C1098       C  0.00417074  0.65095568  0.04837311    -0.00500
C1099       C  0.01699403  0.65803530  0.08314931    -0.23400
C1100       C  0.98922798  0.67516848  0.10227651    -0.23600
C1101       C  0.46022333  0.67896754  0.07854647    -0.00600
H1102       H  0.04352674  0.65120729  0.09381952     0.13200
H1103       H  0.99024696  0.68395044  0.13037591     0.13200
N1104       N  0.26178461  0.77757901  0.22738668    -0.03100
C1105       C  0.27949931  0.78128616  0.19516167    -0.00500
C1106       C  0.27904078  0.81783930  0.18599124    -0.23400
C1107       C  0.26114211  0.83663944  0.21353487    -0.23600
C1108       C  0.25074218  0.81136428  0.23922469    -0.00600
H1109       H  0.29114198  0.82998836  0.16225407     0.13200
H1110       H  0.25736211  0.86581380  0.21515525     0.13200
N1111       N  0.15439450  0.95907871  0.43726496    -0.03100
C1112       C  0.15269075  0.92392422  0.42595232    -0.00500
C1113       C  0.11864084  0.91048750  0.43466932    -0.23400
C1114       C  0.09916124  0.93867592  0.45091327    -0.23600
C1115       C  0.12194540  0.96861733  0.45239711    -0.00600
H1116       H  0.10850556  0.88344713  0.42896056     0.13200
H1117       H  0.07138175  0.93735029  0.46035836     0.13200
C1118       C  0.40984655  0.55613648  0.31359028     0.03500
C1119       C  0.39671352  0.57692202  0.28431913    -0.12600
C1120       C  0.36468629  0.56488937  0.26764039     0.01000
C1121       C  0.36097827  0.52760802  0.26408065    -0.11100
C1122       C  0.36824359  0.50843632  0.29604011     0.03500
C1123       C  0.39998438  0.51905006  0.31459338    -0.10600
H1124       H  0.40135971  0.60596543  0.28385383     0.09100
H1125       H  0.34078921  0.51764254  0.24524380     0.06700
H1126       H  0.41022496  0.50240927  0.33642486     0.06500
O1127       O  0.31903392  0.75645188  0.05079494    -0.81400
C1128       C  0.38103757  0.65264493  0.15214386     0.98000
O1129       O  0.37444360  0.64669921  0.11826506    -0.70500
O1130       O  0.30488343  0.65643565  0.08581278    -0.74100
Al1131     Al  0.35155546  0.67761964  0.07841592     1.49000
C1132       C  0.27710154  0.67169821  0.07201784     0.93200
O1133       O  0.28353736  0.73805483  0.14579086    -0.80300
O1134       O  0.38304436  0.77382977  0.12838937    -0.73900
Al1135     Al  0.30406758  0.74510743  0.09846169     1.90100
O1136       O  0.33369028  0.74806919  0.17647921    -0.72900
O1137       O  0.41738379  0.70779521  0.12017353    -0.72800
O1138       O  0.36678813  0.68037808  0.16694210    -0.78500
O1139       O  0.39830889  0.69317916  0.06561380    -0.76700
O1140       O  0.34266842  0.71632408  0.10722498    -1.12800
O1141       O  0.33268746  0.70103081  0.03300712    -0.72000
C1142       C  0.32070292  0.73293368  0.02574664     0.98700
C1143       C  0.29926179  0.75215735  0.17312716     0.95100
Al1144     Al  0.37247663  0.72648408  0.14468526     1.55600
O1145       O  0.27283584  0.70578093  0.07751309    -0.76600
C1146       C  0.42373653  0.69472437  0.08849534     0.99300
C1147       C  0.35953966  0.79885625  0.12646059     0.94200
O1148       O  0.32747650  0.79107912  0.11560250    -0.81900
N1149       N  0.40988759  0.59457371  0.18050669    -0.03100
C1150       C  0.40989725  0.63097434  0.17348058    -0.00500
C1151       C  0.43919215  0.64607564  0.19193303    -0.23400
C1152       C  0.45707401  0.61793078  0.21015710    -0.23600
C1153       C  0.43778842  0.58628292  0.20333793    -0.00600
H1154       H  0.44664932  0.67454124  0.19246316     0.13200
H1155       H  0.48100330  0.62057055  0.22711904     0.13200
N1156       N  0.08702233  0.89535669  0.30270789    -0.03100
C1157       C  0.05058444  0.90106942  0.30101544    -0.00500
C1158       C  0.03544046  0.88576572  0.33187264    -0.23400
C1159       C  0.06369096  0.87010621  0.35195853    -0.23600
C1160       C  0.09540535  0.87487794  0.33233350    -0.00600
H1161       H  0.50699872  0.88620051  0.33932136     0.13200
H1162       H  0.06101808  0.85628425  0.37761597     0.13200
N1163       N  0.28455953  0.77138007  0.48007005    -0.03100
C1164       C  0.28079736  0.77329062  0.44339202    -0.00500
C1165       C  0.29821076  0.74337280  0.42836252    -0.23400
C1166       C  0.31380488  0.72368651  0.45667175    -0.23600
C1167       C  0.30668703  0.74267480  0.48841791    -0.00600
H1168       H  0.29916015  0.73632400  0.39989108     0.13200
H1169       H  0.32984711  0.69908896  0.45402589     0.13200
C1170       C  0.16165170  0.99489193  0.02826292     0.03500
C1171       C  0.13268873  0.99970762  0.05184457    -0.12600
C1172       C  0.13969899  0.02026305  0.08300590     0.01000
C1173       C  0.16461524  0.54852225  0.08066219    -0.11100
C1174       C  0.19081515  0.54810889  0.05278260     0.03500
C1175       C  0.18573272  0.02394881  0.02352377    -0.10600
H1176       H  0.11278457  0.97821008  0.05350216     0.09100
H1177       H  0.16918169  0.56407220  0.10506491     0.06700
H1178       H  0.20648871  0.02138998  0.00292853     0.06500
O1179       O  0.42380719  0.52352244  0.21380284    -0.81400
C1180       C  0.52936515  0.92187827  0.27196641     0.98000
O1181       O  0.53280083  0.95638034  0.26874788    -0.70500
O1182       O  0.52547424  0.48993239  0.20081197    -0.74100
Al1183     Al  0.50149599  0.49547045  0.24664567     1.49000
C1184       C  0.51143446  0.50359159  0.17239863     0.93200
O1185       O  0.44411995  0.93061376  0.17321909    -0.80300
O1186       O  0.40774271  0.94102906  0.27258229    -0.73900
Al1187     Al  0.43631726  0.47648946  0.19629104     1.90100
O1188       O  0.43533331  0.89622187  0.22077956    -0.72900
O1189       O  0.47137821  0.94953897  0.30892253    -0.72800
O1190       O  0.50294759  0.90645442  0.25590149    -0.78500
O1191       O  0.48199402  0.50586521  0.29323805    -0.76700
O1192       O  0.46447261  0.96600028  0.23465705    -1.12800
O1193       O  0.47857003  0.54102632  0.22887418    -0.72000
C1194       C  0.44691624  0.54867582  0.21700331     0.98700
C1195       C  0.43014160  0.90234647  0.18688334     0.95100
Al1196     Al  0.45534560  0.92664475  0.26191472     1.55600
O1197       O  0.47718551  0.49900507  0.16675053    -0.76600
C1198       C  0.48101632  0.48188496  0.31761465     0.99300
C1199       C  0.38258421  0.94356419  0.24951589     0.94200
O1200       O  0.38985779  0.95703981  0.21826592    -0.81900
C1201       C  0.17055745  0.82821074  0.50674193    -0.17400
C1202       C  0.15285584  0.86163704  0.01073447    -0.19600
C1203       C  0.17259268  0.89256893  0.02116107     0.21100
C1204       C  0.20975270  0.88931104  0.03026272    -0.02500
C1205       C  0.22748928  0.85587701  0.52630406    -0.05600
C1206       C  0.20805611  0.82548284  0.51323828     0.21300
C1207       C  0.26543725  0.85381311  0.53190186     0.19500
C1208       C  0.28468823  0.88411690  0.54459831    -0.17100
C1209       C  0.26670323  0.91696881  0.05011686    -0.19300
C1210       C  0.22971795  0.91995302  0.04146468     0.21000
C1211       C  0.21295308  0.95358965  0.04179418    -0.32300
C1212       C  0.17748065  0.95801190  0.02829741     0.01700
C1213       C  0.15645402  0.92699923  0.02102293    -0.23600
C1214       C  0.22724390  0.79420741  0.50342493    -0.28200
C1215       C  0.26533013  0.79429793  0.50449127     0.07400
C1216       C  0.28400209  0.82288049  0.52069224    -0.26900
H1217       H  0.15536970  0.80507739  0.49671049     0.12100
H1218       H  0.12421008  0.86363427  0.00406559     0.13200
H1219       H  0.31387446  0.88290636  0.54836002     0.12300
H1220       H  0.28215146  0.94054279  0.05884518     0.11500
H1221       H  0.22783015  0.97639274  0.05253064     0.16900
H1222       H  0.12780128  0.92962283  0.01519429     0.12800
H1223       H  0.21321624  0.77171451  0.49042165     0.15700
H1224       H  0.31318107  0.82270037  0.52009400     0.15500
C1225       C  0.13898459  0.02209219  0.21752576    -0.17400
C1226       C  0.13628983  0.00318515  0.25027074    -0.19600
C1227       C  0.13276998  0.96525227  0.24988379     0.21100
C1228       C  0.13651985  0.94579529  0.21691713    -0.02500
C1229       C  0.14045368  0.96463875  0.18439318    -0.05600
C1230       C  0.13924641  0.00298919  0.18443638     0.21300
C1231       C  0.14268952  0.94501640  0.15158055     0.19500
C1232       C  0.14247025  0.90688834  0.15132623    -0.17100
C1233       C  0.13629321  0.88824434  0.18339889    -0.19300
C1234       C  0.13190094  0.90773849  0.21583974     0.21000
C1235       C  0.11835077  0.89059177  0.24611424    -0.32300
C1236       C  0.11179032  0.91011243  0.27770122     0.01700
C1237       C  0.12146619  0.94673293  0.28080033    -0.23600
C1238       C  0.13684258  0.02130443  0.15138000    -0.28200
C1239       C  0.13792181  0.00167348  0.11844975     0.07400
C1240       C  0.14320681  0.96370672  0.11925870    -0.26900
H1241       H  0.13967243  0.55157110  0.21800278     0.12100
H1242       H  0.13455085  0.01823066  0.27560337     0.13200
H1243       H  0.14456351  0.89167680  0.12608197     0.12300
H1244       H  0.13326309  0.85890154  0.18260339     0.11500
H1245       H  0.10807706  0.86349354  0.24369160     0.16900
H1246       H  0.11546216  0.96148215  0.30568805     0.12800
H1247       H  0.13408088  0.55067547  0.15151198     0.15700
H1248       H  0.14648883  0.94794884  0.09465096     0.15500
C1249       C  0.29044251  0.61300792  0.16467002    -0.17400
C1250       C  0.26153352  0.61353645  0.14073453    -0.19600
C1251       C  0.26102414  0.58909891  0.11153547     0.21100
C1252       C  0.29019326  0.56534256  0.10497470    -0.02500
C1253       C  0.31909941  0.56467639  0.12933435    -0.05600
C1254       C  0.31797227  0.58728022  0.16025716     0.21300
C1255       C  0.34996412  0.54313655  0.12192227     0.19500
C1256       C  0.35017699  0.52035610  0.09127495    -0.17100
C1257       C  0.32042518  0.51986643  0.06751098    -0.19300
C1258       C  0.29030796  0.54245866  0.07421056     0.21000
C1259       C  0.25928281  0.54108805  0.05227249    -0.32300
C1260       C  0.22782164  0.56083446  0.06249748     0.01700
C1261       C  0.23095278  0.58724907  0.08974178    -0.23600
C1262       C  0.34672961  0.58721018  0.18397328    -0.28200
C1263       C  0.37953453  0.57257008  0.17262402     0.07400
C1264       C  0.38102366  0.54807925  0.14334117    -0.26900
H1265       H  0.29200635  0.63334950  0.18595433     0.12100
H1266       H  0.23974250  0.63304190  0.14485726     0.13200
H1267       H  0.37315442  0.50294570  0.08590736     0.12300
H1268       H  0.32081267  0.00169021  0.04405066     0.11500
H1269       H  0.25910499  0.02232432  0.02941312     0.16900
H1270       H  0.20869893  0.60439467  0.09689588     0.12800
H1271       H  0.34699703  0.60679622  0.20611089     0.15700
H1272       H  0.40691301  0.53679698  0.13481514     0.15500
C1273       C  0.20783378  0.52188959  0.34046364    -0.17400
C1274       C  0.23754357  0.52134814  0.31717400    -0.19600
C1275       C  0.27124582  0.50820146  0.32939844     0.21100
C1276       C  0.27574803  0.99689586  0.36549327    -0.02500
C1277       C  0.24568868  0.99642139  0.38863880    -0.05600
C1278       C  0.21143193  0.00831972  0.37577182     0.21300
C1279       C  0.24919354  0.98111863  0.42350766     0.19500
C1280       C  0.28329140  0.96957423  0.43614392    -0.17100
C1281       C  0.31363091  0.97176581  0.41357485    -0.19300
C1282       C  0.30983923  0.98451901  0.37789105     0.21000
C1283       C  0.33966473  0.98561025  0.35458777    -0.32300
C1284       C  0.33586581  0.49758464  0.31833468     0.01700
C1285       C  0.30050263  0.50642938  0.30594159    -0.23600
C1286       C  0.18072122  0.00237615  0.39677517    -0.28200
C1287       C  0.18379736  0.98209209  0.42853724     0.07400
C1288       C  0.21790842  0.97381290  0.44321439    -0.26900
H1289       H  0.18170498  0.53107476  0.33031922     0.12100
H1290       H  0.23407235  0.53077126  0.28949951     0.13200
H1291       H  0.28624608  0.95791081  0.46300120     0.12300
H1292       H  0.33975067  0.96240599  0.42357949     0.11500
H1293       H  0.36578127  0.97838572  0.36571466     0.16900
H1294       H  0.29505360  0.51381516  0.27824351     0.12800
H1295       H  0.15393634  0.00791932  0.38567315     0.15700
H1296       H  0.21969363  0.95710695  0.46723255     0.15500
C1297       C  0.30311168  0.70114558  0.32490566    -0.17400
C1298       C  0.31603636  0.66667106  0.33350328    -0.19600
C1299       C  0.30776541  0.63738114  0.31044357     0.21100
C1300       C  0.28064964  0.64075525  0.28369348    -0.02500
C1301       C  0.26677150  0.67524519  0.27580265    -0.05600
C1302       C  0.28105144  0.70576238  0.29429313     0.21300
C1303       C  0.24463763  0.67969953  0.24484532     0.19500
C1304       C  0.23019602  0.64897344  0.22723031    -0.17100
C1305       C  0.24414871  0.61444761  0.23526795    -0.19300
C1306       C  0.27307125  0.61145038  0.25998304     0.21000
C1307       C  0.29896432  0.58360001  0.25661724    -0.32300
C1308       C  0.33103731  0.58541575  0.27751356     0.01700
C1309       C  0.33114005  0.60795173  0.30866333    -0.23600
C1310       C  0.27755005  0.73987380  0.27882597    -0.28200
C1311       C  0.25876179  0.74407477  0.24622763     0.07400
C1312       C  0.24155141  0.71424404  0.22963147    -0.26900
H1313       H  0.31335873  0.72447737  0.33964996     0.12100
H1314       H  0.33628656  0.66400910  0.35479064     0.13200
H1315       H  0.21145512  0.65197301  0.20467826     0.12300
H1316       H  0.23631197  0.59147784  0.21843338     0.11500
H1317       H  0.29631293  0.56369125  0.23498563     0.16900
H1318       H  0.35277813  0.60645448  0.32846106     0.12800
H1319       H  0.29249728  0.76268168  0.29004859     0.15700
H1320       H  0.22845800  0.71749629  0.20349847     0.15500
C1321       C  0.38915872  0.56379991  0.44569423    -0.17400
C1322       C  0.39406522  0.58120009  0.47908989    -0.19600
C1323       C  0.41241679  0.61450270  0.48070325     0.21100
C1324       C  0.42277676  0.63210341  0.44824058    -0.02500
C1325       C  0.41735392  0.61481295  0.41464081    -0.05600
C1326       C  0.40228343  0.57977869  0.41371704     0.21300
C1327       C  0.42950885  0.63139444  0.38236269     0.19500
C1328       C  0.44375996  0.66675866  0.38371125    -0.17100
C1329       C  0.45051543  0.68339274  0.41728992    -0.19300
C1330       C  0.44206752  0.66510006  0.44954521     0.21000
C1331       C  0.45576462  0.67701640  0.98278728    -0.32300
C1332       C  0.44736768  0.65844415  0.01477743     0.01700
C1333       C  0.42383287  0.62868529  0.01403829    -0.23600
C1334       C  0.40150250  0.56070653  0.38108206    -0.28200
C1335       C  0.41594732  0.57552888  0.34882400     0.07400
C1336       C  0.42908623  0.61155845  0.34976044    -0.26900
H1337       H  0.37657971  0.53715341  0.44505806     0.12100
H1338       H  0.38549678  0.56763858  0.50372413     0.13200
H1339       H  0.45235335  0.68029220  0.35908880     0.12300
H1340       H  0.46444403  0.70935026  0.41806701     0.11500
H1341       H  0.47546469  0.69871661  0.98341352     0.16900
H1342       H  0.91829608  0.61416231  0.03901044     0.12800
H1343       H  0.38873205  0.53443184  0.38133958     0.15700
H1344       H  0.44010759  0.62389378  0.32550426     0.15500
C1345       C  0.40853409  0.88910834  0.42978340    -0.17400
C1346       C  0.40584112  0.90580022  0.39607320    -0.19600
C1347       C  0.39262022  0.88607149  0.36623410     0.21100
C1348       C  0.38522925  0.84858145  0.36922329    -0.02500
C1349       C  0.38839000  0.83173584  0.40298525    -0.05600
C1350       C  0.39846384  0.85256172  0.43354180     0.21300
C1351       C  0.37979472  0.79457637  0.40651418     0.19500
C1352       C  0.37000267  0.77413932  0.37574162    -0.17100
C1353       C  0.36524714  0.79133309  0.34230345    -0.19300
C1354       C  0.37151058  0.82879424  0.33926209     0.21000
C1355       C  0.36096191  0.84765853  0.30819178    -0.32300
C1356       C  0.36330926  0.88562394  0.30782857     0.01700
C1357       C  0.38249864  0.90401598  0.33486078    -0.23600
C1358       C  0.39728046  0.83686180  0.46758463    -0.28200
C1359       C  0.38641152  0.80039602  0.47192238     0.07400
C1360       C  0.38021062  0.77887824  0.44092171    -0.26900
H1361       H  0.41701949  0.90510306  0.45312801     0.12100
H1362       H  0.41191648  0.93455788  0.39385887     0.13200
H1363       H  0.36435861  0.74532040  0.37795455     0.12300
H1364       H  0.35543233  0.77573194  0.31925037     0.11500
H1365       H  0.34657644  0.83369476  0.28649376     0.16900
H1366       H  0.38529697  0.93304791  0.33342834     0.12800
H1367       H  0.40591737  0.85315556  0.49058624     0.15700
H1368       H  0.37597449  0.74998474  0.44345075     0.15500
C1369       C  0.10508104  0.72878308  0.53399138    -0.17400
C1370       C  0.07131802  0.73263044  0.05093357    -0.19600
C1371       C  0.04191664  0.74754563  0.53174459     0.21100
C1372       C  0.04738541  0.76183537  0.49671822    -0.02500
C1373       C  0.08155022  0.75924497  0.48039913    -0.05600
C1374       C  0.11003074  0.74073511  0.49820197     0.21300
C1375       C  0.08600648  0.77162117  0.44459319     0.19500
C1376       C  0.05744427  0.78883854  0.42625245    -0.17100
C1377       C  0.02349128  0.79126151  0.44235162    -0.19300
C1378       C  0.01808835  0.77647083  0.47686071     0.25400
C1379       C  0.98339313  0.77410710  0.49077189    -0.32300
C1380       C  0.47708122  0.75715221  0.52430180     0.01700
C1381       C  0.00678978  0.74678256  0.04595973    -0.23600
C1382       C  0.14079578  0.73058438  0.47812957    -0.28200
C1383       C  0.14172751  0.73735502  0.44062435     0.07400
C1384       C  0.11691657  0.76196624  0.42569338    -0.26900
H1385       H  0.12643376  0.71446866  0.04802270     0.12100
H1386       H  0.06765656  0.72188566  0.07805563     0.13200
H1387       H  0.06057861  0.79760518  0.39840008     0.12300
H1388       H  0.00106345  0.80277825  0.42704040     0.11500
H1389       H  0.46119584  0.78522062  0.47495806     0.16900
H1390       H  0.50262765  0.73777169  0.07344810     0.12800
H1391       H  0.16105921  0.71279517  0.49002995     0.15700
H1392       H  0.11783184  0.76919903  0.39756261     0.15500
C1393       C  0.91901721  0.94302951  0.05673153    -0.17400
C1394       C  0.93898708  0.97525974  0.05820602    -0.19600
C1395       C  0.97595685  0.97423786  0.06700759     0.21100
C1396       C  0.99401055  0.94049541  0.07040840    -0.02500
C1397       C  0.47427241  0.90820156  0.06772369    -0.05600
C1398       C  0.43634842  0.90950883  0.06263292     0.21300
C1399       C  0.49225849  0.87473606  0.07204521     0.19500
C1400       C  0.52993675  0.87351060  0.07792488    -0.17100
C1401       C  0.54927527  0.90567754  0.08238230    -0.19300
C1402       C  0.53114446  0.93908351  0.07983762     0.21000
C1403       C  0.04826716  0.97080465  0.09058742    -0.32300
C1404       C  0.02930302  0.50362461  0.09056390     0.01700
C1405       C  0.99427339  0.50612098  0.07622882    -0.23600
C1406       C  0.41638593  0.87735771  0.06394435    -0.28200
C1407       C  0.43396229  0.84350228  0.06827825     0.07400
C1408       C  0.47230271  0.84292498  0.07107864    -0.26900
H1409       H  0.89000972  0.94432566  0.05167480     0.12100
H1410       H  0.92542242  0.00109107  0.05411731     0.13200
H1411       H  0.54405932  0.84775375  0.08084156     0.12300
H1412       H  0.57795855  0.90445481  0.08914132     0.11500
H1413       H  0.07447714  0.96940958  0.10344023     0.16900
H1414       H  0.97999132  0.53196764  0.07717186     0.12800
H1415       H  0.38723433  0.87920634  0.06114542     0.15700
H1416       H  0.48747021  0.81782374  0.07234174     0.15500
C1417       C  0.48523050  0.80941420  0.29339712    -0.17400
C1418       C  0.45184624  0.81091579  0.27543405    -0.19600
C1419       C  0.45041198  0.80836894  0.23747129     0.21100
C1420       C  0.48258125  0.80201270  0.21750135    -0.02500
C1421       C  0.01600138  0.80106668  0.23539680    -0.05600
C1422       C  0.01744705  0.80546577  0.27343216     0.21300
C1423       C  0.04809332  0.79737531  0.21496638     0.19500
C1424       C  0.04676326  0.79307389  0.17714161    -0.17100
C1425       C  0.01358748  0.79454450  0.15927030    -0.19300
C1426       C  0.48174183  0.80018793  0.17923831     0.21000
C1427       C  0.44994665  0.80890447  0.16148145    -0.32300
C1428       C  0.41956793  0.81962299  0.18094370     0.01700
C1429       C  0.41841045  0.81632374  0.21872576    -0.23600
C1430       C  0.05113300  0.80602694  0.29073633    -0.28200
C1431       C  0.08337400  0.80303399  0.27046626     0.07400
C1432       C  0.08120531  0.79834520  0.23252015    -0.26900
H1433       H  0.48595204  0.81249365  0.32270403     0.12100
H1434       H  0.42745030  0.81560316  0.29102640     0.13200
H1435       H  0.07142122  0.78980976  0.16134016     0.12300
H1436       H  0.01300792  0.79294207  0.12985403     0.11500
H1437       H  0.45042065  0.81388661  0.13289698     0.16900
H1438       H  0.39440457  0.82527311  0.23332661     0.12800
H1439       H  0.05203990  0.80789259  0.32002016     0.15700
H1440       H  0.10524334  0.79457372  0.21613413     0.15500
C1441       C  0.05253863  0.67410206  0.38000251    -0.17400
C1442       C  0.02866500  0.64520880  0.38257455    -0.19600
C1443       C  0.03022965  0.61685332  0.35722881     0.21100
C1444       C  0.05701251  0.61646546  0.32992276    -0.02500
C1445       C  0.08146131  0.64526772  0.32762973    -0.05600
C1446       C  0.07896512  0.67402965  0.35269668     0.21300
C1447       C  0.10919057  0.64468135  0.30127590     0.19500
C1448       C  0.11161583  0.61538154  0.27678375    -0.17100
C1449       C  0.08773346  0.58605806  0.27979475    -0.19300
C1450       C  0.06141164  0.58581802  0.30721278     0.21000
C1451       C  0.04248434  0.55413447  0.31549015    -0.32300
C1452       C  0.01764544  0.55430775  0.34425417     0.01700
C1453       C  0.00857070  0.58667292  0.36178401    -0.23600
C1454       C  0.10268697  0.70269759  0.35004627    -0.28200
C1455       C  0.12842189  0.70459011  0.32213293     0.07400
C1456       C  0.13319250  0.67396683  0.29928380    -0.26900
H1457       H  0.05103746  0.69591668  0.39990816     0.12100
H1458       H  0.01043525  0.64397718  0.40551813     0.13200
H1459       H  0.13223721  0.61490287  0.25578349     0.12300
H1460       H  0.09010396  0.56329445  0.26127873     0.11500
H1461       H  0.05073421  0.52858420  0.30325855     0.16900
H1462       H  0.99011518  0.58566316  0.38469382     0.12800
H1463       H  0.09903977  0.72451823  0.36870485     0.15700
H1464       H  0.15376102  0.67332106  0.27840477     0.15500
C1465       C  0.19863196  0.78453417  0.12979745    -0.17400
C1466       C  0.20316285  0.76778062  0.09589279    -0.19600
C1467       C  0.19048505  0.73224255  0.08987557     0.21100
C1468       C  0.17098292  0.71441106  0.11745382    -0.02500
C1469       C  0.16680583  0.73096783  0.15152149    -0.05600
C1470       C  0.18177079  0.76569339  0.15817264     0.21300
C1471       C  0.14976897  0.71166477  0.17968273     0.19500
C1472       C  0.13526859  0.67703808  0.17338563    -0.17100
C1473       C  0.14028823  0.66031705  0.13987838    -0.19300
C1474       C  0.15878331  0.67848867  0.11223965     0.21000
C1475       C  0.16913440  0.65955979  0.08136588    -0.32300
C1476       C  0.19330277  0.67502193  0.05662349     0.01700
C1477       C  0.20045240  0.71253804  0.05873278    -0.23600
C1478       C  0.18167377  0.77967100  0.19362438    -0.28200
C1479       C  0.16884793  0.75820021  0.22236021     0.07400
C1480       C  0.14987296  0.72605436  0.21442287    -0.26900
H1481       H  0.21015525  0.81127917  0.13441229     0.12100
H1482       H  0.21868498  0.78169807  0.07536598     0.13200
H1483       H  0.12232181  0.66196058  0.19503921     0.12300
H1484       H  0.13216821  0.63227675  0.13635302     0.11500
H1485       H  0.16195450  0.63132508  0.07987612     0.16900
H1486       H  0.21814338  0.72475787  0.03874186     0.12800
H1487       H  0.19244136  0.80649313  0.19889545     0.15700
H1488       H  0.13550300  0.71179090  0.23549538     0.15500
N1489       N  0.21797688  0.65194779  0.53698278    -0.03100
C1490       C  0.25478495  0.65119585  0.54314359    -0.00500
C1491       C  0.27019637  0.62687633  0.51860980    -0.23400
C1492       C  0.24230654  0.61184217  0.49789960    -0.23600
C1493       C  0.20997095  0.62628587  0.51068542    -0.00600
H1494       H  0.29872900  0.61988226  0.01664245     0.13200
H1495       H  0.24521999  0.59050208  0.97772613     0.13200
N1496       N  0.01291089  0.52227651  0.86484716    -0.03100
C1497       C  0.02543368  0.51933141  0.89954843    -0.00500
C1498       C  0.01498047  0.98557351  0.91247915    -0.23400
C1499       C  0.49645451  0.96767726  0.88449315    -0.23600
C1500       C  0.49517216  0.49111506  0.85515301    -0.00600
H1501       H  0.02055933  0.97482582  0.93922326     0.13200
H1502       H  0.48574831  0.94029854  0.88543448     0.13200
N1503       N  0.39627396  0.84472249  0.66373527    -0.03100
C1504       C  0.40170226  0.88129601  0.66480223    -0.00500
C1505       C  0.37576515  0.89716675  0.64240592    -0.23400
C1506       C  0.35519800  0.86918159  0.62690563    -0.23600
C1507       C  0.36976003  0.83673140  0.63906539    -0.00600
H1508       H  0.37220628  0.92598872  0.63758810     0.13200
H1509       H  0.33320492  0.87228771  0.60771498     0.13200
C1510       C  0.17019494  0.77045076  0.76053674     0.03500
C1511       C  0.17180335  0.74345653  0.78733795    -0.12600
C1512       C  0.14288091  0.74080815  0.81189199     0.01000
C1513       C  0.11908705  0.77059521  0.81522321    -0.11100
C1514       C  0.11883860  0.79714228  0.78846495     0.03500
C1515       C  0.15020324  0.80159683  0.76768930    -0.10600
H1516       H  0.18914731  0.72016857  0.78278427     0.09100
H1517       H  0.09499668  0.76820939  0.83153786     0.06700
H1518       H  0.15068483  0.82256415  0.74728764     0.06500
O1519       O  0.17422599  0.78267019  0.87872283    -0.81400
C1520       C  0.27995321  0.88297325  0.82191548     0.98000
O1521       O  0.28392127  0.84842990  0.82557503    -0.70500
O1522       O  0.27500858  0.81535831  0.89374606    -0.74100
Al1523     Al  0.25233280  0.80891416  0.84753180     1.49000
C1524       C  0.26003157  0.80162930  0.92148411     0.93200
O1525       O  0.19505512  0.87491153  0.91845911    -0.80300
O1526       O  0.15792389  0.86258066  0.81829255    -0.73900
Al1527     Al  0.18654690  0.82910918  0.89603313     1.90100
O1528       O  0.18512718  0.90820348  0.87017529    -0.72900
O1529       O  0.22383744  0.85367089  0.78352474    -0.72800
O1530       O  0.25287807  0.89793185  0.83719529    -0.78500
O1531       O  0.23410223  0.79778817  0.80075487    -0.76700
O1532       O  0.21496749  0.83857381  0.85793146    -1.12800
O1533       O  0.22859070  0.76304708  0.86581802    -0.72000
C1534       C  0.19645860  0.75669730  0.87741945     0.98700
C1535       C  0.18103646  0.90293627  0.90435099     0.95100
Al1536     Al  0.20587012  0.87732725  0.82980994     1.55600
O1537       O  0.22591783  0.80662115  0.92616987    -0.76600
C1538       C  0.23437493  0.82121101  0.77590028     0.99300
C1539       C  0.13300372  0.86067239  0.84183123     0.94200
O1540       O  0.14071408  0.84838242  0.87340468    -0.81900
N1541       N  0.04133020  0.53112652  0.61446813    -0.03100
C1542       C  0.03375473  0.53126057  0.65067727    -0.00500
C1543       C  0.04837195  0.56293009  0.66519167    -0.23400
C1544       C  0.06461507  0.58207867  0.63682347    -0.23600
C1545       C  0.06084784  0.56134438  0.60550762    -0.00600
H1546       H  0.04635195  0.57193485  0.69317177     0.13200
H1547       H  0.07683347  0.60860704  0.63897383     0.13200
N1548       N  0.15947132  0.71182754  0.91698540    -0.03100
C1549       C  0.15160170  0.67529604  0.91550799    -0.00500
C1550       C  0.17371686  0.65964251  0.88913118    -0.23400
C1551       C  0.19461000  0.68701010  0.87376843    -0.23600
C1552       C  0.18440599  0.71936737  0.89016433    -0.00600
H1553       H  0.17421378  0.63121408  0.88131191     0.13200
H1554       H  0.21342251  0.68383554  0.85138016     0.13200
N1555       N  0.33765517  0.90560622  0.78709606    -0.03100
C1556       C  0.30109561  0.90480351  0.79334641    -0.00500
C1557       C  0.28479317  0.92789233  0.76834881    -0.23400
C1558       C  0.31217114  0.94325737  0.74719114    -0.23600
C1559       C  0.34499248  0.93032241  0.76032444    -0.00600
H1560       H  0.25597012  0.93334692  0.76586197     0.13200
H1561       H  0.30838699  0.96315665  0.72594483     0.13200
C1562       C  0.41388477  0.80854338  0.56362236     0.03500
C1563       C  0.38555298  0.80761935  0.53829434    -0.12600
C1564       C  0.38906420  0.78405982  0.00840453     0.01000
C1565       C  0.41185970  0.75379420  0.01163107    -0.11100
C1566       C  0.43945089  0.75557158  0.03774724     0.03500
C1567       C  0.43314775  0.77614822  0.56868087    -0.10600
H1568       H  0.36897326  0.83145392  0.53480377     0.09100
H1569       H  0.41695796  0.73741909  0.98772573     0.06700
H1570       H  0.45312166  0.77428305  0.59004061     0.06500
O1571       O  0.14750016  0.61284934  0.52309192    -0.81400
C1572       C  0.04655940  0.54798496  0.92142406     0.98000
O1573       O  0.08041862  0.55426670  0.91572729    -0.70500
O1574       O  0.11071010  0.62443052  0.92350143    -0.74100
Al1575     Al  0.11997615  0.57837148  0.94574243     1.49000
C1576       C  0.12412723  0.65297792  0.93768876     0.93200
O1577       O  0.05222548  0.64623209  0.50475195    -0.80300
O1578       O  0.07175551  0.54747029  0.54267146    -0.73900
Al1579     Al  0.09968927  0.62679712  0.51208609     1.90100
O1580       O  0.02242157  0.59605122  0.51627951    -0.72900
O1581       O  0.07949635  0.01256972  0.47765132    -0.72800
O1582       O  0.03171212  0.56214317  0.94911989    -0.78500
O1583       O  0.13376235  0.53183867  0.96234699    -0.76700
O1584       O  0.09141120  0.58750003  0.48430530    -1.12800
O1585       O  0.16568824  0.59904104  0.96833536    -0.72000
C1586       C  0.17264739  0.61199651  0.50001278     0.98700
C1587       C  0.02555321  0.63056402  0.51960919     0.95100
Al1588     Al  0.05457070  0.55736487  0.49524279     1.55600
O1589       O  0.11951250  0.65794446  0.47182167    -0.76600
C1590       C  0.11133028  0.00604504  0.46540684     0.99300
C1591       C  0.07335740  0.57134766  0.56739110     0.94200
O1592       O  0.08338927  0.60360008  0.55894351    -0.81900
N1593       N  0.96964904  0.66378569  0.54589185    -0.03100
C1594       C  0.00417071  0.65095525  0.54837304    -0.00500
C1595       C  0.01699366  0.65803435  0.58314946    -0.23400
C1596       C  0.98922766  0.67516778  0.60227647    -0.23600
C1597       C  0.46022342  0.67896753  0.57854614    -0.00600
H1598       H  0.04352612  0.65120580  0.59381996     0.13200
H1599       H  0.99024641  0.68394940  0.63037597     0.13200
N1600       N  0.26178517  0.77757912  0.72738654    -0.03100
C1601       C  0.27949929  0.78128615  0.69516120    -0.00500
C1602       C  0.27904032  0.81783923  0.68599052    -0.23400
C1603       C  0.26114198  0.83663945  0.71353435    -0.23600
C1604       C  0.25074270  0.81136440  0.73922454    -0.00600
H1605       H  0.29114100  0.82998820  0.66225307     0.13200
H1606       H  0.25736171  0.86581380  0.71515455     0.13200
N1607       N  0.15439432  0.95907874  0.93726460    -0.03100
C1608       C  0.15269071  0.92392423  0.92595197    -0.00500
C1609       C  0.11864070  0.91048752  0.93466866    -0.23400
C1610       C  0.09916092  0.93867598  0.95091240    -0.23600
C1611       C  0.12194509  0.96861738  0.95239651    -0.00600
H1612       H  0.10850547  0.88344714  0.92895984     0.13200
H1613       H  0.07138136  0.93735036  0.96035724     0.13200
C1614       C  0.40984712  0.55613341  0.81359145     0.03500
C1615       C  0.39671506  0.57691922  0.78432002    -0.12600
C1616       C  0.36468748  0.56488770  0.76764118     0.01000
C1617       C  0.36097806  0.52760646  0.76408167    -0.11100
C1618       C  0.36824285  0.50843455  0.79604116     0.03500
C1619       C  0.39998397  0.51904728  0.81459437    -0.10600
H1620       H  0.40136237  0.60596242  0.78385428     0.09100
H1621       H  0.34078860  0.51764166  0.74524494     0.06700
H1622       H  0.41022424  0.50240596  0.83642559     0.06500
O1623       O  0.31903429  0.75645190  0.55079446    -0.81400
C1624       C  0.38103752  0.65264457  0.65214323     0.98000
O1625       O  0.37444371  0.64669903  0.61826439    -0.70500
O1626       O  0.30488356  0.65643561  0.58581219    -0.74100
Al1627     Al  0.35155559  0.67761961  0.57841539     1.49000
C1628       C  0.27710169  0.67169820  0.57201724     0.93200
O1629       O  0.28353733  0.73805493  0.64579025    -0.80300
O1630       O  0.38304454  0.77382977  0.62838932    -0.73900
Al1631     Al  0.30406777  0.74510748  0.59846117     1.90100
O1632       O  0.33369018  0.74806888  0.67647884    -0.72900
O1633       O  0.41738382  0.70779512  0.62017317    -0.72800
O1634       O  0.36678804  0.68037769  0.66694152    -0.78500
O1635       O  0.39830903  0.69317925  0.56561334    -0.76700
O1636       O  0.34266852  0.71632404  0.60722452    -1.12800
O1637       O  0.33268752  0.70103078  0.53300667    -0.72000
C1638       C  0.32070298  0.73293363  0.52574621     0.98700
C1639       C  0.29926173  0.75215729  0.67312665     0.95100
Al1640     Al  0.37247664  0.72648387  0.64468491     1.55600
O1641       O  0.27283605  0.70578095  0.57751248    -0.76600
C1642       C  0.42373664  0.69472444  0.58849493     0.99300
C1643       C  0.35953990  0.79885632  0.62646035     0.94200
O1644       O  0.32747677  0.79107919  0.61560212    -0.81900
N1645       N  0.40988728  0.59457342  0.68050660    -0.03100
C1646       C  0.40989721  0.63097393  0.67347991    -0.00500
C1647       C  0.43919285  0.64607511  0.69193126    -0.23400
C1648       C  0.45707495  0.61793027  0.71015515    -0.23600
C1649       C  0.43778874  0.58628254  0.70333704    -0.00600
H1650       H  0.44665046  0.67454059  0.69246068     0.13200
H1651       H  0.48100491  0.62056997  0.72711615     0.13200
N1652       N  0.08702313  0.89535705  0.80270786    -0.03100
C1653       C  0.05058515  0.90106933  0.80101509    -0.00500
C1654       C  0.03544105  0.88576499  0.83187191    -0.23400
C1655       C  0.06369150  0.87010541  0.85195778    -0.23600
C1656       C  0.09540602  0.87487777  0.83233315    -0.00600
H1657       H  0.50699918  0.88619932  0.83932036     0.13200
H1658       H  0.06101854  0.85628302  0.87761497     0.13200
N1659       N  0.28455983  0.77138023  0.98007029    -0.03100
C1660       C  0.28079813  0.77329103  0.94339220    -0.00500
C1661       C  0.29821202  0.74337348  0.92836271    -0.23400
C1662       C  0.31380590  0.72368708  0.95667201    -0.23600
C1663       C  0.30668742  0.74267505  0.98841822    -0.00600
H1664       H  0.29916194  0.73632493  0.89989121     0.13200
H1665       H  0.32984834  0.69908969  0.95402617     0.13200
C1666       C  0.16165300  0.99489232  0.52826328     0.03500
C1667       C  0.13268968  0.99970800  0.55184450    -0.12600
C1668       C  0.13969943  0.02026345  0.58300592     0.01000
C1669       C  0.16461612  0.54852130  0.58066179    -0.11100
C1670       C  0.19081579  0.54810806  0.55278195     0.03500
C1671       C  0.18573397  0.02394925  0.52352438    -0.10600
H1672       H  0.11278548  0.97821050  0.55350174     0.09100
H1673       H  0.16918277  0.56407131  0.60506442     0.06700
H1674       H  0.20649022  0.02139042  0.50292938     0.06500
O1675       O  0.42380768  0.52352201  0.71380199    -0.81400
C1676       C  0.52936572  0.92187825  0.77196618     0.98000
O1677       O  0.53280136  0.95638033  0.76874778    -0.70500
O1678       O  0.52547483  0.48993193  0.70081187    -0.74100
Al1679     Al  0.50149645  0.49547039  0.74664532     1.49000
C1680       C  0.51143521  0.50359093  0.67239840     0.93200
O1681       O  0.44411988  0.93061451  0.67321871    -0.80300
O1682       O  0.40774320  0.94102920  0.77258219    -0.73900
Al1683     Al  0.43631796  0.47648889  0.69629054     1.90100
O1684       O  0.43533374  0.89622221  0.72077905    -0.72900
O1685       O  0.47137870  0.94953896  0.80892232    -0.72800
O1686       O  0.50294811  0.90645445  0.75590126    -0.78500
O1687       O  0.48199437  0.50586538  0.79323755    -0.76700
O1688       O  0.46447313  0.96600044  0.73465696    -1.12800
O1689       O  0.47857041  0.54102609  0.72887350    -0.72000
C1690       C  0.44691665  0.54867548  0.71700249     0.98700
C1691       C  0.43014178  0.90234703  0.68688287     0.95100
Al1692     Al  0.45534607  0.92664486  0.76191447     1.55600
O1693       O  0.47718629  0.49900436  0.66675010    -0.76600
C1694       C  0.48101667  0.48188523  0.81761424     0.99300
C1695       C  0.38258462  0.94356473  0.74951591     0.94200
O1696       O  0.38985819  0.95704048  0.71826604    -0.81900
C1697       C  0.17055721  0.82821044  0.00674068    -0.17400
C1698       C  0.15285632  0.86163745  0.51073581    -0.19600
C1699       C  0.17259349  0.89256927  0.52116202     0.21100
C1700       C  0.20975354  0.88931119  0.53026339    -0.02500
C1701       C  0.22748868  0.85587695  0.02630348    -0.05600
C1702       C  0.20805582  0.82548271  0.01323751     0.21300
C1703       C  0.26543661  0.85381326  0.03190172     0.19500
C1704       C  0.28468729  0.88411719  0.04459827    -0.17100
C1705       C  0.26670444  0.91696867  0.55011690    -0.19300
C1706       C  0.22971911  0.91995313  0.54146499     0.21000
C1707       C  0.21295444  0.95358989  0.54179438    -0.32300
C1708       C  0.17748190  0.95801224  0.52829788     0.01700
C1709       C  0.15645506  0.92699965  0.52102370    -0.23600
C1710       C  0.22724385  0.79420729  0.00342456    -0.28200
C1711       C  0.26533008  0.79429793  0.00449141     0.07400
C1712       C  0.28400172  0.82288061  0.02069257    -0.26900
H1713       H  0.15536973  0.80507707  0.99670900     0.12100
H1714       H  0.12421051  0.86363484  0.50406725     0.13200
H1715       H  0.31387352  0.88290692  0.04836014     0.12300
H1716       H  0.28215293  0.94054259  0.55884499     0.11500
H1717       H  0.22783177  0.97639295  0.55253050     0.16900
H1718       H  0.12780234  0.92962336  0.51519512     0.12800
H1719       H  0.21321648  0.77171433  0.99042111     0.15700
H1720       H  0.31318071  0.82270060  0.02009487     0.15500
C1721       C  0.13898508  0.02209285  0.71752577    -0.17400
C1722       C  0.13629034  0.00318591  0.75027084    -0.19600
C1723       C  0.13277069  0.96525303  0.74988402     0.21100
C1724       C  0.13652088  0.94579595  0.71691745    -0.02500
C1725       C  0.14045430  0.96463932  0.68439338    -0.05600
C1726       C  0.13924680  0.00298975  0.68443645     0.21300
C1727       C  0.14268995  0.94501686  0.65158079     0.19500
C1728       C  0.14247129  0.90688878  0.65132667    -0.17100
C1729       C  0.13629506  0.88824482  0.68339952    -0.19300
C1730       C  0.13190264  0.90773907  0.71584028     0.21000
C1731       C  0.11835267  0.89059230  0.74611483    -0.32300
C1732       C  0.11179129  0.91011310  0.77770150     0.01700
C1733       C  0.12146669  0.94673375  0.78080055    -0.23600
C1734       C  0.13684279  0.02130488  0.65138003    -0.28200
C1735       C  0.13792185  0.00167387  0.61844980     0.07400
C1736       C  0.14320664  0.96370707  0.61925884    -0.26900
H1737       H  0.13967517  0.55157054  0.71800251     0.12100
H1738       H  0.13455129  0.01823146  0.77560342     0.13200
H1739       H  0.14456448  0.89167713  0.62608247     0.12300
H1740       H  0.13326545  0.85890197  0.68260421     0.11500
H1741       H  0.10807959  0.86349388  0.74369235     0.16900
H1742       H  0.11546219  0.96148304  0.80568811     0.12800
H1743       H  0.13408263  0.55067466  0.65151179     0.15700
H1744       H  0.14648851  0.94794910  0.59465113     0.15500
C1745       C  0.29044227  0.61300781  0.66466941    -0.17400
C1746       C  0.26153353  0.61353630  0.64073360    -0.19600
C1747       C  0.26102440  0.58909863  0.61153462     0.21100
C1748       C  0.29019338  0.56534195  0.60497445    -0.02500
C1749       C  0.31909916  0.56467566  0.62933455    -0.05600
C1750       C  0.31797193  0.58727990  0.66025708     0.21300
C1751       C  0.34996372  0.54313541  0.62192308     0.19500
C1752       C  0.35017665  0.52035447  0.59127612    -0.17100
C1753       C  0.32042522  0.51986495  0.56751167    -0.19300
C1754       C  0.29030825  0.54245774  0.57421052     0.21000
C1755       C  0.25928338  0.54108719  0.55227207    -0.32300
C1756       C  0.22782225  0.56083393  0.56249653     0.01700
C1757       C  0.23095332  0.58724886  0.58974051    -0.23600
C1758       C  0.34672922  0.58721017  0.68397332    -0.28200
C1759       C  0.37953410  0.57256975  0.67262439     0.07400
C1760       C  0.38102317  0.54807829  0.64334206    -0.26900
H1761       H  0.29200609  0.63334965  0.68595346     0.12100
H1762       H  0.23974256  0.63304189  0.64485600     0.13200
H1763       H  0.37315383  0.50294355  0.58590919     0.12300
H1764       H  0.32081284  0.00169028  0.54405362     0.11500
H1765       H  0.25910603  0.02232540  0.52941455     0.16900
H1766       H  0.20869941  0.60439457  0.59689420     0.12800
H1767       H  0.34699667  0.60679656  0.70611061     0.15700
H1768       H  0.40691250  0.53679578  0.63481628     0.15500
C1769       C  0.20783367  0.52189279  0.84046558    -0.17400
C1770       C  0.23754350  0.52135116  0.81717599    -0.19600
C1771       C  0.27124539  0.50820334  0.82940018     0.21100
C1772       C  0.27574810  0.99689702  0.86549376    -0.02500
C1773       C  0.24568860  0.99642231  0.88863909    -0.05600
C1774       C  0.21143185  0.00832045  0.87577194     0.21300
C1775       C  0.24919334  0.98111940  0.92350790     0.19500
C1776       C  0.28329121  0.96957530  0.93614439    -0.17100
C1777       C  0.31363083  0.97176704  0.91357549    -0.19300
C1778       C  0.30983928  0.98452019  0.87789165     0.21000
C1779       C  0.33966483  0.98561127  0.85458839    -0.32300
C1780       C  0.33586485  0.49758393  0.81833589     0.01700
C1781       C  0.30050194  0.50643004  0.80594308    -0.23600
C1782       C  0.18072103  0.00237645  0.89677501    -0.28200
C1783       C  0.18379713  0.98209221  0.92853699     0.07400
C1784       C  0.21790815  0.97381322  0.94321432    -0.26900
H1785       H  0.18170503  0.53107851  0.83032124     0.12100
H1786       H  0.23407249  0.53077468  0.78950162     0.13200
H1787       H  0.28624579  0.95791187  0.96300169     0.12300
H1788       H  0.33975056  0.96240729  0.92358025     0.11500
H1789       H  0.36578139  0.97838663  0.86571525     0.16900
H1790       H  0.29505298  0.51381583  0.77824498     0.12800
H1791       H  0.15393618  0.00791951  0.88567288     0.15700
H1792       H  0.21969333  0.95710719  0.96723245     0.15500
C1793       C  0.30311398  0.70114637  0.82490518    -0.17400
C1794       C  0.31603925  0.66667201  0.83350257    -0.19600
C1795       C  0.30776816  0.63738192  0.81044310     0.21100
C1796       C  0.28065197  0.64075576  0.78369343    -0.02500
C1797       C  0.26677334  0.67524556  0.77580276    -0.05600
C1798       C  0.28105320  0.70576293  0.79429303     0.21300
C1799       C  0.24463902  0.67969965  0.74484573     0.19500
C1800       C  0.23019737  0.64897341  0.72723104    -0.17100
C1801       C  0.24415031  0.61444767  0.73526869    -0.19300
C1802       C  0.27307320  0.61145066  0.75998341     0.21000
C1803       C  0.29896595  0.58359993  0.75661783    -0.32300
C1804       C  0.33103919  0.58541555  0.77751381     0.01700
C1805       C  0.33114269  0.60795238  0.80866299    -0.23600
C1806       C  0.27755124  0.73987428  0.77882586    -0.28200
C1807       C  0.25876272  0.74407498  0.74622767     0.07400
C1808       C  0.24155245  0.71424406  0.72963173    -0.26900
H1809       H  0.31336092  0.72447830  0.83964939     0.12100
H1810       H  0.33628971  0.66401028  0.85478968     0.13200
H1811       H  0.21145619  0.65197278  0.70467918     0.12300
H1812       H  0.23631335  0.59147778  0.71843441     0.11500
H1813       H  0.29631401  0.56369079  0.73498668     0.16900
H1814       H  0.35278091  0.60645529  0.82846054     0.12800
H1815       H  0.29249839  0.76268237  0.79004828     0.15700
H1816       H  0.22845880  0.71749611  0.70349884     0.15500
C1817       C  0.38916114  0.56379639  0.94569599    -0.17400
C1818       C  0.39406720  0.58119705  0.97909149    -0.19600
C1819       C  0.41241778  0.61450023  0.98070449     0.21100
C1820       C  0.42277730  0.63210084  0.94824163    -0.02500
C1821       C  0.41735488  0.61480990  0.91464205    -0.05600
C1822       C  0.40228526  0.57977525  0.91371859     0.21300
C1823       C  0.42950919  0.63139148  0.88236377     0.19500
C1824       C  0.44375962  0.66675599  0.88371196    -0.17100
C1825       C  0.45051472  0.68339056  0.91729043    -0.19300
C1826       C  0.44206707  0.66509811  0.94954589     0.21000
C1827       C  0.45576572  0.67701739  0.48278672    -0.32300
C1828       C  0.44736817  0.65844503  0.51477670     0.01700
C1829       C  0.42383242  0.62868695  0.51403721    -0.23600
C1830       C  0.40150435  0.56070294  0.88108365    -0.28200
C1831       C  0.41594822  0.57552565  0.84882528     0.07400
C1832       C  0.42908664  0.61155540  0.84976163    -0.26900
H1833       H  0.37658281  0.53714955  0.94506010     0.12100
H1834       H  0.38549916  0.56763559  0.00372587     0.13200
H1835       H  0.45235265  0.68028950  0.85908936     0.12300
H1836       H  0.46444274  0.70934840  0.91806725     0.11500
H1837       H  0.47546649  0.69871693  0.48341319     0.16900
H1838       H  0.91829498  0.61416389  0.53900916     0.12800
H1839       H  0.38873462  0.53442793  0.88134151     0.15700
H1840       H  0.44010785  0.62389089  0.82550546     0.15500
C1841       C  0.40853389  0.88910880  0.92978325    -0.17400
C1842       C  0.40584106  0.90580078  0.89607310    -0.19600
C1843       C  0.39262061  0.88607203  0.86623381     0.21100
C1844       C  0.38523007  0.84858189  0.86922275    -0.02500
C1845       C  0.38839070  0.83173618  0.90298467    -0.05600
C1846       C  0.39846404  0.85256206  0.93354141     0.21300
C1847       C  0.37979575  0.79457663  0.90651337     0.19500
C1848       C  0.37000410  0.77413960  0.87574066    -0.17100
C1849       C  0.36524869  0.79133346  0.84230252    -0.19300
C1850       C  0.37151180  0.82879466  0.83926135     0.21000
C1851       C  0.36096300  0.84765902  0.80819113    -0.32300
C1852       C  0.36330982  0.88562446  0.80782824     0.01700
C1853       C  0.38249888  0.90401659  0.83486060    -0.23600
C1854       C  0.39728061  0.83686197  0.96758417    -0.28200
C1855       C  0.38641206  0.80039606  0.97192166     0.07400
C1856       C  0.38021155  0.77887836  0.94092084    -0.26900
H1857       H  0.41701889  0.90510352  0.95312800     0.12100
H1858       H  0.41191615  0.93455851  0.89385893     0.13200
H1859       H  0.36436027  0.74532065  0.87795344     0.12300
H1860       H  0.35543418  0.77573229  0.81924928     0.11500
H1861       H  0.34657773  0.83369520  0.78649299     0.16900
H1862       H  0.38529669  0.93304860  0.83342840     0.12800
H1863       H  0.40591722  0.85315571  0.99058592     0.15700
H1864       H  0.37597561  0.74998483  0.94344969     0.15500
C1865       C  0.10508131  0.72878340  0.03399169    -0.17400
C1866       C  0.07131777  0.73262999  0.55093328    -0.19600
C1867       C  0.04191693  0.74754603  0.03174479     0.21100
C1868       C  0.04738583  0.76183577  0.99671846    -0.02500
C1869       C  0.08155067  0.75924527  0.98039939    -0.05600
C1870       C  0.11003108  0.74073528  0.99820222     0.21300
C1871       C  0.08600701  0.77162139  0.94459341     0.19500
C1872       C  0.05744483  0.78883876  0.92625264    -0.17100
C1873       C  0.02349185  0.79126187  0.94235180    -0.19300
C1874       C  0.01808882  0.77647121  0.97686086     0.25400
C1875       C  0.98339352  0.77410725  0.99077183    -0.32300
C1876       C  0.47708154  0.75715231  0.02430161     0.01700
C1877       C  0.00678959  0.74678237  0.54595972    -0.23600
C1878       C  0.14079609  0.73058435  0.97812980    -0.28200
C1879       C  0.14172793  0.73735502  0.94062456     0.07400
C1880       C  0.11691709  0.76196636  0.92569359    -0.26900
H1881       H  0.12643358  0.71446837  0.54802232     0.12100
H1882       H  0.06765637  0.72188518  0.57805534     0.13200
H1883       H  0.06057915  0.79760513  0.89840019     0.12300
H1884       H  0.00106403  0.80277860  0.92704053     0.11500
H1885       H  0.46119635  0.78522095  0.97495792     0.16900
H1886       H  0.50262750  0.73777163  0.57344823     0.12800
H1887       H  0.16105942  0.71279509  0.99003020     0.15700
H1888       H  0.11783244  0.76919930  0.89756283     0.15500
C1889       C  0.91901585  0.94303090  0.55673231    -0.17400
C1890       C  0.93898540  0.97526131  0.55820724    -0.19600
C1891       C  0.97595546  0.97423954  0.56700759     0.21100
C1892       C  0.99400970  0.94049718  0.57040642    -0.02500
C1893       C  0.47427185  0.90820321  0.56772117    -0.05600
C1894       C  0.43634762  0.90951021  0.56263204     0.21300
C1895       C  0.49225850  0.87473777  0.57204095     0.19500
C1896       C  0.52993700  0.87351254  0.57791907    -0.17100
C1897       C  0.54927526  0.90567954  0.58237702    -0.19300
C1898       C  0.53114394  0.93908538  0.57983432     0.21000
C1899       C  0.04826655  0.97080627  0.59058499    -0.32300
C1900       C  0.02930342  0.50362415  0.59056362     0.01700
C1901       C  0.99427334  0.50612036  0.57622957    -0.23600
C1902       C  0.41638551  0.87735886  0.56394381    -0.28200
C1903       C  0.43396242  0.84350358  0.56827663     0.07400
C1904       C  0.47230299  0.84292654  0.57107479    -0.26900
H1905       H  0.89000815  0.94432691  0.55167674     0.12100
H1906       H  0.92542030  0.00109264  0.55411997     0.13200
H1907       H  0.54405997  0.84775576  0.58083440     0.12300
H1908       H  0.57795879  0.90445692  0.58913507     0.11500
H1909       H  0.07447702  0.96941104  0.60343682     0.16900
H1910       H  0.97999116  0.53196693  0.57717310     0.12800
H1911       H  0.38723375  0.87920715  0.56114618     0.15700
H1912       H  0.48747070  0.81782536  0.57233691     0.15500
C1913       C  0.48523155  0.80941256  0.79339527    -0.17400
C1914       C  0.45184742  0.81091379  0.77543192    -0.19600
C1915       C  0.45041367  0.80836846  0.73746906     0.21100
C1916       C  0.48258335  0.80201420  0.71749916    -0.02500
C1917       C  0.01600334  0.80106813  0.73539498    -0.05600
C1918       C  0.01744846  0.80546559  0.77343055     0.21300
C1919       C  0.04809559  0.79737812  0.71496481     0.19500
C1920       C  0.04676607  0.79307864  0.67713978    -0.17100
C1921       C  0.01359047  0.79454952  0.65926816    -0.19300
C1922       C  0.48174439  0.80019126  0.67923603     0.21000
C1923       C  0.44994908  0.80890749  0.66147926    -0.32300
C1924       C  0.41956967  0.81962362  0.68094172     0.01700
C1925       C  0.41841200  0.81632274  0.71872359    -0.23600
C1926       C  0.05113418  0.80602647  0.79073518    -0.28200
C1927       C  0.08337547  0.80303421  0.77046548     0.07400
C1928       C  0.08120732  0.79834714  0.73251910    -0.26900
H1929       H  0.48595266  0.81249085  0.82270228     0.12100
H1930       H  0.42745111  0.81559961  0.79102421     0.13200
H1931       H  0.07142428  0.78981573  0.66133849     0.12300
H1932       H  0.01301126  0.79294858  0.62985176     0.11500
H1933       H  0.45042325  0.81389124  0.63289508     0.16900
H1934       H  0.39440561  0.82527047  0.73332461     0.12800
H1935       H  0.05204069  0.80789120  0.82001911     0.15700
H1936       H  0.10524556  0.79457636  0.71613327     0.15500
C1937       C  0.05254047  0.67410185  0.88000179    -0.17400
C1938       C  0.02866638  0.64520898  0.88257354    -0.19600
C1939       C  0.03023105  0.61685336  0.85722794     0.21100
C1940       C  0.05701417  0.61646513  0.82992214    -0.02500
C1941       C  0.08146329  0.64526711  0.82762929    -0.05600
C1942       C  0.07896722  0.67402902  0.85269624     0.21300
C1943       C  0.10919270  0.64468049  0.80127561     0.19500
C1944       C  0.11161795  0.61538056  0.77678360    -0.17100
C1945       C  0.08773533  0.58605727  0.77979451    -0.19300
C1946       C  0.06141319  0.58581757  0.80721226     0.21000
C1947       C  0.04248543  0.55413426  0.81548952    -0.32300
C1948       C  0.01764644  0.55430784  0.84425346     0.01700
C1949       C  0.00857191  0.58667315  0.86178314    -0.23600
C1950       C  0.10268938  0.70269669  0.85004607    -0.28200
C1951       C  0.12842407  0.70458920  0.82213258     0.07400
C1952       C  0.13319466  0.67396595  0.79928342    -0.26900
H1953       H  0.05103941  0.69591649  0.89990740     0.12100
H1954       H  0.01043631  0.64397771  0.90551688     0.13200
H1955       H  0.13223946  0.61490170  0.75578347     0.12300
H1956       H  0.09010586  0.56329354  0.76127860     0.11500
H1957       H  0.05073509  0.52858387  0.80325800     0.16900
H1958       H  0.99011647  0.58566354  0.88469300     0.12800
H1959       H  0.09904240  0.72451734  0.86870463     0.15700
H1960       H  0.15376309  0.67332027  0.77840426     0.15500
C1961       C  0.19863273  0.78453374  0.62979732    -0.17400
C1962       C  0.20316353  0.76778018  0.59589269    -0.19600
C1963       C  0.19048542  0.73224225  0.58987540     0.21100
C1964       C  0.17098323  0.71441081  0.61745365    -0.02500
C1965       C  0.16680631  0.73096755  0.65152136    -0.05600
C1966       C  0.18177143  0.76569305  0.65817248     0.21300
C1967       C  0.14976950  0.71166451  0.67968264     0.19500
C1968       C  0.13526892  0.67703789  0.67338551    -0.17100
C1969       C  0.14028844  0.66031688  0.63987822    -0.19300
C1970       C  0.15878346  0.67848849  0.61223943     0.21000
C1971       C  0.16913445  0.65955960  0.58136559    -0.32300
C1972       C  0.19330285  0.67502173  0.55662317     0.01700
C1973       C  0.20045253  0.71253780  0.55873251    -0.23600
C1974       C  0.18167448  0.77967069  0.69362418    -0.28200
C1975       C  0.16884879  0.75819991  0.72236005     0.07400
C1976       C  0.14987374  0.72605406  0.71442283    -0.26900
H1977       H  0.21015617  0.81127867  0.63441218     0.12100
H1978       H  0.21868582  0.78169751  0.57536592     0.13200
H1979       H  0.12232212  0.66196040  0.69503907     0.12300
H1980       H  0.13216848  0.63227658  0.63635288     0.11500
H1981       H  0.16195445  0.63132492  0.57987581     0.16900
H1982       H  0.21814345  0.72475764  0.53874154     0.12800
H1983       H  0.19244209  0.80649280  0.69889516     0.15700
H1984       H  0.13550397  0.71179056  0.73549543     0.15500
N1985       N  0.71791340  0.15198241  0.03702818    -0.03100
C1986       C  0.75472202  0.15123181  0.04318156    -0.00500
C1987       C  0.77013391  0.12692821  0.01863294    -0.23400
C1988       C  0.74224321  0.11190008  0.99792056    -0.23600
C1989       C  0.70990634  0.12632836  0.01072114    -0.00600
H1990       H  0.79866785  0.11994208  0.51665409     0.13200
H1991       H  0.74515772  0.09057299  0.47773242     0.13200
N1992       N  0.51281874  0.02231222  0.36485643    -0.03100
C1993       C  0.52537085  0.01933849  0.39954550    -0.00500
C1994       C  0.51504722  0.48556898  0.41249646    -0.23400
C1995       C  0.99653787  0.46765228  0.38451210    -0.23600
C1996       C  0.99508141  0.99115338  0.35514575    -0.00600
H1997       H  0.52061395  0.47483876  0.43925013     0.13200
H1998       H  0.98583023  0.44027424  0.38546488     0.13200
N1999       N  0.89630334  0.34473733  0.16370678    -0.03100
C2000       C  0.90167829  0.38131625  0.16481894    -0.00500
C2001       C  0.87569478  0.39718116  0.14247159    -0.23400
C2002       C  0.85514083  0.36918869  0.12696509    -0.23600
C2003       C  0.86975302  0.33674100  0.13907641    -0.00600
H2004       H  0.87209142  0.42600492  0.13769634     0.13200
H2005       H  0.83311564  0.37229120  0.10780654     0.13200
C2006       C  0.67021659  0.27042128  0.26058503     0.03500
C2007       C  0.67183144  0.24337812  0.28733562    -0.12600
C2008       C  0.64292581  0.24070639  0.31190255     0.01000
C2009       C  0.61911848  0.27048197  0.31527355    -0.11100
C2010       C  0.61887754  0.29707929  0.28856607     0.03500
C2011       C  0.65026190  0.30157189  0.26782611    -0.10600
H2012       H  0.68914406  0.22007753  0.28272457     0.09100
H2013       H  0.59502298  0.26805771  0.33157702     0.06700
H2014       H  0.65077722  0.32260138  0.24748899     0.06500
O2015       O  0.67420285  0.28264334  0.37876743    -0.81400
C2016       C  0.77996997  0.38293154  0.32198201     0.98000
O2017       O  0.78392096  0.34838597  0.32562364    -0.70500
O2018       O  0.77498071  0.31533861  0.39378640    -0.74100
Al2019     Al  0.75231765  0.30888467  0.34757610     1.49000
C2020       C  0.75999641  0.30161407  0.42152059     0.93200
O2021       O  0.69503495  0.37488517  0.41849842    -0.80300
O2022       O  0.65792809  0.36259148  0.31833385    -0.73900
Al2023     Al  0.68652403  0.32908764  0.39607012     1.90100
O2024       O  0.68514226  0.40819035  0.37021859    -0.72900
O2025       O  0.72383850  0.35365266  0.28357848    -0.72800
O2026       O  0.75289615  0.39789348  0.33726101    -0.78500
O2027       O  0.73409471  0.29776122  0.30079706    -0.76700
O2028       O  0.71495347  0.33854898  0.35797248    -1.12800
O2029       O  0.72857073  0.26302521  0.36586475    -0.72000
C2030       C  0.69644196  0.25667488  0.37747338     0.98700
C2031       C  0.68103994  0.40291989  0.40439061     0.95100
Al2032     Al  0.70587850  0.37731150  0.32985984     1.55600
O2033       O  0.72588478  0.30660773  0.42620735    -0.76600
C2034       C  0.73436415  0.32119055  0.27594733     0.99300
C2035       C  0.63299914  0.36065896  0.34186115     0.94200
O2036       O  0.64069915  0.34835950  0.37343274    -0.81900
N2037       N  0.54133089  0.03113295  0.11447240    -0.03100
C2038       C  0.53374707  0.03128381  0.15067700    -0.00500
C2039       C  0.54832426  0.06297718  0.16517784    -0.23400
C2040       C  0.56455101  0.08212541  0.13680083    -0.23600
C2041       C  0.56081403  0.06136589  0.10549750    -0.00600
H2042       H  0.54628328  0.07199868  0.19315101     0.13200
H2043       H  0.57673112  0.10867203  0.13893537     0.13200
N2044       N  0.65946363  0.21180476  0.41704759    -0.03100
C2045       C  0.65160310  0.17527266  0.41556138    -0.00500
C2046       C  0.67374366  0.15961859  0.38920647    -0.23400
C2047       C  0.69463592  0.18699054  0.37385296    -0.23600
C2048       C  0.68440654  0.21934751  0.39023479    -0.00600
H2049       H  0.67425118  0.13118969  0.38138929     0.13200
H2050       H  0.71346193  0.18381947  0.35147532     0.13200
N2051       N  0.83768936  0.40557531  0.28719055    -0.03100
C2052       C  0.80112602  0.40476654  0.29342909    -0.00500
C2053       C  0.78482648  0.42786579  0.26844079    -0.23400
C2054       C  0.81220554  0.44324573  0.24729913    -0.23600
C2055       C  0.84502532  0.43031188  0.26043390    -0.00600
H2056       H  0.75600343  0.43331906  0.26595145     0.13200
H2057       H  0.80842377  0.46315658  0.22606335     0.13200
C2058       C  0.91386453  0.30864691  0.06369485     0.03500
C2059       C  0.88548682  0.30765023  0.03842745    -0.12600
C2060       C  0.88900433  0.28407774  0.50855076     0.01000
C2061       C  0.91182737  0.25383231  0.51178662    -0.11100
C2062       C  0.93943238  0.25564122  0.53789082     0.03500
C2063       C  0.93315539  0.27627367  0.06879651    -0.10600
H2064       H  0.86889716  0.33147705  0.03493357     0.09100
H2065       H  0.91691901  0.23743726  0.48789220     0.06700
H2066       H  0.95317363  0.27449226  0.09012627     0.06500
O2067       O  0.64742676  0.11291054  0.02311270    -0.81400
C2068       C  0.54651438  0.04797432  0.42143010     0.98000
O2069       O  0.58037525  0.05425949  0.41572977    -0.70500
O2070       O  0.61068975  0.12441732  0.42350679    -0.74100
Al2071     Al  0.61993933  0.07836377  0.44575397     1.49000
C2072       C  0.62409503  0.15296504  0.43770267     0.93200
O2073       O  0.55212921  0.14621138  0.00470332    -0.80300
O2074       O  0.57173587  0.04747056  0.04267076    -0.73900
Al2075     Al  0.59960747  0.12681092  0.01207481     1.90100
O2076       O  0.52236607  0.09601955  0.01627568    -0.72900
O2077       O  0.57953100  0.51258616  0.97765621    -0.72800
O2078       O  0.53166991  0.06212361  0.44913050    -0.78500
O2079       O  0.63372396  0.03182955  0.46235274    -0.76700
O2080       O  0.59136374  0.08749547  0.98430558    -1.12800
O2081       O  0.66564133  0.09903911  0.46837485    -0.72000
C2082       C  0.67258483  0.11203035  0.00004489     0.98700
C2083       C  0.52546429  0.13053752  0.01956846     0.95100
Al2084     Al  0.55453293  0.05734815  0.99524452     1.55600
O2085       O  0.61943427  0.15794780  0.97182347    -0.76600
C2086       C  0.61136677  0.50605699  0.96541726     0.99300
C2087       C  0.57331484  0.07135994  0.06738158     0.94200
O2088       O  0.58330973  0.10362041  0.05892546    -0.81900
N2089       N  0.46955115  0.16376788  0.04583892    -0.03100
C2090       C  0.50407280  0.15092977  0.04832325    -0.00500
C2091       C  0.51689542  0.15799745  0.08310090    -0.23400
C2092       C  0.48913609  0.17513160  0.10222984    -0.23600
C2093       C  0.96013615  0.17894893  0.07849972    -0.00600
H2094       H  0.54342575  0.15116343  0.09377119     0.13200
H2095       H  0.49015651  0.18390582  0.13033172     0.13200
N2096       N  0.76175175  0.27756678  0.22741902    -0.03100
C2097       C  0.77946797  0.28128539  0.19519669    -0.00500
C2098       C  0.77899571  0.31783800  0.18602717    -0.23400
C2099       C  0.76109593  0.33662974  0.21357458    -0.23600
C2100       C  0.75070985  0.31134878  0.23926424    -0.00600
H2101       H  0.79109115  0.32999181  0.16228941     0.13200
H2102       H  0.75730923  0.36580310  0.21519950     0.13200
N2103       N  0.65442127  0.45908257  0.43728132    -0.03100
C2104       C  0.65270901  0.42392239  0.42598919    -0.00500
C2105       C  0.61866272  0.41049014  0.43472589    -0.23400
C2106       C  0.59919276  0.43868515  0.45096661    -0.23600
C2107       C  0.62197898  0.46862591  0.45242459    -0.00600
H2108       H  0.60852271  0.38344880  0.42902862     0.13200
H2109       H  0.57141693  0.43736557  0.46042363     0.13200
C2110       C  0.90991016  0.05595168  0.31357266     0.03500
C2111       C  0.89684803  0.07671981  0.28425750    -0.12600
C2112       C  0.86480189  0.06473774  0.26757477     0.01000
C2113       C  0.86100253  0.02746138  0.26407824    -0.11100
C2114       C  0.86823457  0.00831396  0.29606167     0.03500
C2115       C  0.89998901  0.01888709  0.31460753    -0.10600
H2116       H  0.90156267  0.10575062  0.28374901     0.09100
H2117       H  0.84079026  0.01751739  0.24525636     0.06700
H2118       H  0.91019278  0.00225725  0.33646358     0.06500
O2119       O  0.81897207  0.25646651  0.05082167    -0.81400
C2120       C  0.88098370  0.15266120  0.15214354     0.98000
O2121       O  0.87438468  0.14671266  0.11826761    -0.70500
O2122       O  0.80481875  0.15645691  0.08585157    -0.74100
Al2123     Al  0.85148677  0.17763125  0.07843058     1.49000
C2124       C  0.77703807  0.17172401  0.07206053     0.93200
O2125       O  0.78350761  0.23806370  0.14582630    -0.80300
O2126       O  0.88302289  0.27383707  0.12840553    -0.73900
Al2127     Al  0.80402214  0.24512605  0.09849485     1.90100
O2128       O  0.83366693  0.24808519  0.17650052    -0.72900
O2129       O  0.91733278  0.20779226  0.12015246    -0.72800
O2130       O  0.86673921  0.18039383  0.16694362    -0.78500
O2131       O  0.89822744  0.19318677  0.06559980    -0.76700
O2132       O  0.84261981  0.21633975  0.10724095    -1.12800
O2133       O  0.83260960  0.20103777  0.03303784    -0.72000
C2134       C  0.82063494  0.23294168  0.02577743     0.98700
C2135       C  0.79923605  0.25216618  0.17315824     0.95100
Al2136     Al  0.87244146  0.22649289  0.14469166     1.55600
O2137       O  0.77277796  0.20580673  0.07755733    -0.76600
C2138       C  0.92366480  0.19472304  0.08846760     0.99300
C2139       C  0.85952129  0.29886624  0.12648109     0.94200
O2140       O  0.82745155  0.29109327  0.11563350    -0.81900
N2141       N  0.90986336  0.09456308  0.18040260    -0.03100
C2142       C  0.90983194  0.13098441  0.17347902    -0.00500
C2143       C  0.93904414  0.14609468  0.19205434    -0.23400
C2144       C  0.95692516  0.11793753  0.21025320    -0.23600
C2145       C  0.93771755  0.08627274  0.20329375    -0.00600
H2146       H  0.94643852  0.17457531  0.19269072     0.13200
H2147       H  0.98079003  0.12057994  0.22730558     0.13200
N2148       N  0.58703366  0.39536435  0.30274787    -0.03100
C2149       C  0.55058919  0.40101402  0.30100130    -0.00500
C2150       C  0.53541840  0.38563187  0.33180617    -0.23400
C2151       C  0.56366139  0.36998158  0.35190968    -0.23600
C2152       C  0.59539923  0.37484096  0.33234602    -0.00600
H2153       H  0.00696358  0.38600706  0.33920854     0.13200
H2154       H  0.56096937  0.35610654  0.37753537     0.13200
N2155       N  0.78451295  0.27138181  0.48009722    -0.03100
C2156       C  0.78074662  0.27327377  0.44342246    -0.00500
C2157       C  0.79813378  0.24333782  0.42839803    -0.23400
C2158       C  0.81371996  0.22365665  0.45671389    -0.23600
C2159       C  0.80662136  0.24266873  0.48845151    -0.00600
H2160       H  0.79907143  0.23627471  0.39992690     0.13200
H2161       H  0.82974557  0.19904732  0.45407810     0.13200
C2162       C  0.66172396  0.49499451  0.02830102     0.03500
C2163       C  0.63275288  0.49980277  0.05187193    -0.12600
C2164       C  0.63975270  0.52032365  0.08305922     0.01000
C2165       C  0.66453812  0.04847790  0.08056431    -0.11100
C2166       C  0.69074046  0.04803309  0.05268528     0.03500
C2167       C  0.68581082  0.52405202  0.02359493    -0.10600
H2168       H  0.61283037  0.47832227  0.05348250     0.09100
H2169       H  0.66909692  0.06405824  0.10495016     0.06700
H2170       H  0.70656974  0.52150853  0.00299944     0.06500
O2171       O  0.92377245  0.02349668  0.21367832    -0.81400
C2172       C  0.02938776  0.42183671  0.27195096     0.98000
O2173       O  0.03283820  0.45633776  0.26874346    -0.70500
O2174       O  0.02546318  0.98996720  0.20081755    -0.74100
Al2175     Al  0.00145151  0.99549739  0.24662944     1.49000
C2176       C  0.01143615  0.00360769  0.17239126     0.93200
O2177       O  0.94406739  0.43065431  0.17325069    -0.80300
O2178       O  0.90778386  0.44100692  0.27266428    -0.73900
Al2179     Al  0.93632346  0.97646232  0.19621745     1.90100
O2180       O  0.93532728  0.39622412  0.22079569    -0.72900
O2181       O  0.97144366  0.44950279  0.30894282    -0.72800
O2182       O  0.00296647  0.40643014  0.25587707    -0.78500
O2183       O  0.98192807  0.00589652  0.29321485    -0.76700
O2184       O  0.96449482  0.46599106  0.23469378    -1.12800
O2185       O  0.97850433  0.04103269  0.22884020    -0.72000
C2186       C  0.94686084  0.04866208  0.21692706     0.98700
C2187       C  0.93010993  0.40237260  0.18690578     0.95100
Al2188     Al  0.95537552  0.42662397  0.26193946     1.55600
O2189       O  0.97719979  0.99898426  0.16670795    -0.76600
C2190       C  0.98094580  0.98192143  0.31759590     0.99300
C2191       C  0.88261092  0.44356640  0.24961857     0.94200
O2192       O  0.88986535  0.45706805  0.21837415    -0.81900
C2193       C  0.67055649  0.32828541  0.50685321    -0.17400
C2194       C  0.65287023  0.36172285  0.01084454    -0.19600
C2195       C  0.67263115  0.39265823  0.02121813     0.21100
C2196       C  0.70980241  0.38939533  0.03027011    -0.02500
C2197       C  0.72752501  0.35595286  0.52630912    -0.05600
C2198       C  0.70806441  0.32555334  0.51329536     0.21300
C2199       C  0.76547882  0.35388224  0.53185832     0.19500
C2200       C  0.78475558  0.38418600  0.54451783    -0.17100
C2201       C  0.76678673  0.41704794  0.05003453    -0.19300
C2202       C  0.72979088  0.42003727  0.04142939     0.21000
C2203       C  0.71303316  0.45367685  0.04177400    -0.32300
C2204       C  0.67754478  0.45810698  0.02832229     0.01700
C2205       C  0.65650258  0.42709461  0.02107920    -0.23600
C2206       C  0.72723050  0.29426244  0.50348566    -0.28200
C2207       C  0.76531721  0.29433916  0.50450827     0.07400
C2208       C  0.78402045  0.32293618  0.52064621    -0.26900
H2209       H  0.65534620  0.30514395  0.49686952     0.12100
H2210       H  0.62421471  0.36372305  0.00421907     0.13200
H2211       H  0.81394272  0.38296305  0.54826816     0.12300
H2212       H  0.78225170  0.44062145  0.05873447     0.11500
H2213       H  0.72793117  0.47647540  0.05248729     0.16900
H2214       H  0.62784460  0.42972130  0.01527601     0.12800
H2215       H  0.71317854  0.27176197  0.49052155     0.15700
H2216       H  0.81319282  0.32275057  0.51999096     0.15500
C2217       C  0.63906366  0.52209754  0.21757848    -0.17400
C2218       C  0.63636572  0.50318324  0.25031977    -0.19600
C2219       C  0.63278670  0.46525763  0.24992333     0.21100
C2220       C  0.63648769  0.44580712  0.21694713    -0.02500
C2221       C  0.64040512  0.46465530  0.18442397    -0.05600
C2222       C  0.63925810  0.50300617  0.18448187     0.21300
C2223       C  0.64258268  0.44504116  0.15160228     0.19500
C2224       C  0.64231970  0.40691377  0.15133656    -0.17100
C2225       C  0.63618401  0.38826540  0.18341455    -0.19300
C2226       C  0.63185600  0.40775338  0.21586770     0.21000
C2227       C  0.61836279  0.39060132  0.24616246    -0.32300
C2228       C  0.61180934  0.41012193  0.27774969     0.01700
C2229       C  0.62148449  0.44674240  0.28084423    -0.23600
C2230       C  0.63686418  0.52133682  0.15143409    -0.28200
C2231       C  0.63790359  0.50171885  0.11849292     0.07400
C2232       C  0.64311277  0.46374178  0.11928591    -0.26900
H2233       H  0.63953322  0.05156711  0.21794076     0.12100
H2234       H  0.63468565  0.51821843  0.27566189     0.13200
H2235       H  0.64436506  0.39170767  0.12608520     0.12300
H2236       H  0.63313721  0.35892439  0.18261654     0.11500
H2237       H  0.60811533  0.36349522  0.24375934     0.16900
H2238       H  0.61549436  0.46149243  0.30573485     0.12800
H2239       H  0.63400899  0.05063853  0.15144062     0.15700
H2240       H  0.64636851  0.44798808  0.09467106     0.15500
C2241       C  0.79040593  0.11295837  0.16452508    -0.17400
C2242       C  0.76148178  0.11346555  0.14060713    -0.19600
C2243       C  0.76096869  0.08902044  0.11141484     0.21100
C2244       C  0.79014286  0.06526954  0.10485100    -0.02500
C2245       C  0.81906594  0.06462734  0.12919435    -0.05600
C2246       C  0.81794074  0.08723601  0.16011196     0.21300
C2247       C  0.84994409  0.04310934  0.12176986     0.19500
C2248       C  0.85014951  0.02031715  0.09112917    -0.17100
C2249       C  0.82037440  0.01979088  0.06739171    -0.19300
C2250       C  0.79024884  0.04237175  0.07409770     0.21000
C2251       C  0.75921231  0.04098450  0.05217300    -0.32300
C2252       C  0.72775554  0.06074507  0.06239098     0.01700
C2253       C  0.73089567  0.08716972  0.08962200    -0.23600
C2254       C  0.84670043  0.08717206  0.18382598    -0.28200
C2255       C  0.87951620  0.07255934  0.17246996     0.07400
C2256       C  0.88101558  0.04808223  0.14317300    -0.26900
H2257       H  0.79198060  0.13331644  0.18579205     0.12100
H2258       H  0.73968734  0.13296683  0.14473325     0.13200
H2259       H  0.87314068  0.00292909  0.08574140     0.12300
H2260       H  0.82086958  0.50177680  0.04416148     0.11500
H2261       H  0.75918546  0.52244843  0.02949614     0.16900
H2262       H  0.70864984  0.10433624  0.09675112     0.12800
H2263       H  0.84695685  0.10674525  0.20597448     0.15700
H2264       H  0.90690880  0.03681308  0.13464189     0.15500
C2265       C  0.70783734  0.02188665  0.34048587    -0.17400
C2266       C  0.73754841  0.02133694  0.31719929    -0.19600
C2267       C  0.77124191  0.00817071  0.32942392     0.21100
C2268       C  0.77576172  0.49694204  0.36547080    -0.02500
C2269       C  0.74570210  0.49645463  0.38861860    -0.05600
C2270       C  0.71143669  0.50832841  0.37575115     0.21300
C2271       C  0.74921787  0.48116383  0.42349146     0.19500
C2272       C  0.78332526  0.46964770  0.43612886    -0.17100
C2273       C  0.81366325  0.47185164  0.41355703    -0.19300
C2274       C  0.80986347  0.48459097  0.37786915     0.21000
C2275       C  0.83969081  0.48569786  0.35456359    -0.32300
C2276       C  0.83584957  0.99750393  0.31835926     0.01700
C2277       C  0.80049857  0.00639208  0.30596903    -0.23600
C2278       C  0.68072914  0.50236671  0.39675620    -0.28200
C2279       C  0.68381923  0.48209505  0.42852575     0.07400
C2280       C  0.71793718  0.47384266  0.44320280    -0.26900
H2281       H  0.68171344  0.03108460  0.33034011     0.12100
H2282       H  0.73408456  0.03076758  0.28952649     0.13200
H2283       H  0.78628946  0.45799592  0.46299012     0.12300
H2284       H  0.83978956  0.46251303  0.42356382     0.11500
H2285       H  0.86581641  0.47849122  0.36568374     0.16900
H2286       H  0.79505917  0.01380449  0.27827648     0.12800
H2287       H  0.65394026  0.50789252  0.38565522     0.15700
H2288       H  0.71973453  0.45714840  0.46722788     0.15500
C2289       C  0.80324968  0.20110635  0.32483548    -0.17400
C2290       C  0.81623754  0.16664220  0.33337772    -0.19600
C2291       C  0.80797128  0.13736089  0.31030611     0.21100
C2292       C  0.78083082  0.14072672  0.28358275    -0.02500
C2293       C  0.76690109  0.17520617  0.27573789    -0.05600
C2294       C  0.78115077  0.20572461  0.29425026     0.21300
C2295       C  0.74471451  0.17966044  0.24481888     0.19500
C2296       C  0.73028785  0.14892957  0.22719790    -0.17100
C2297       C  0.74427950  0.11440935  0.23520250    -0.19300
C2298       C  0.77323374  0.11141930  0.25988262     0.21000
C2299       C  0.79910642  0.08354686  0.25652404    -0.32300
C2300       C  0.83119412  0.08535282  0.27740260     0.01700
C2301       C  0.83133802  0.10792924  0.30852177    -0.23600
C2302       C  0.77757166  0.23984989  0.27883111    -0.28200
C2303       C  0.75874629  0.24405720  0.24625425     0.07400
C2304       C  0.74154732  0.21422058  0.22965191    -0.26900
H2305       H  0.81346049  0.22443432  0.33961235     0.12100
H2306       H  0.83650596  0.16398276  0.35464808     0.13200
H2307       H  0.71151098  0.15192465  0.20467442     0.12300
H2308       H  0.73642997  0.09143774  0.21837647     0.11500
H2309       H  0.79641980  0.06361330  0.23491936     0.16900
H2310       H  0.85297893  0.10643601  0.32831368     0.12800
H2311       H  0.79249886  0.26266671  0.29006274     0.15700
H2312       H  0.72840309  0.21748514  0.20354510     0.15500
C2313       C  0.88901517  0.06378723  0.44564336    -0.17400
C2314       C  0.89390582  0.08121331  0.47902983    -0.19600
C2315       C  0.91231200  0.11448788  0.48063728     0.21100
C2316       C  0.92273623  0.13204182  0.44817054    -0.02500
C2317       C  0.91733613  0.11472201  0.41457957    -0.05600
C2318       C  0.90221676  0.07970879  0.41366897     0.21300
C2319       C  0.92955524  0.13125347  0.38230060     0.19500
C2320       C  0.94385747  0.16659600  0.38363244    -0.17100
C2321       C  0.95057365  0.18326523  0.41720206    -0.19300
C2322       C  0.94205206  0.16502540  0.44946799     0.21000
C2323       C  0.95569388  0.17698786  0.98272092    -0.32300
C2324       C  0.94726815  0.15843532  0.01471709     0.01700
C2325       C  0.92371226  0.12868924  0.01397328    -0.23600
C2326       C  0.90146398  0.06060129  0.38105216    -0.28200
C2327       C  0.91597623  0.07537135  0.34879834     0.07400
C2328       C  0.92914873  0.11138708  0.34971642    -0.26900
H2329       H  0.87639003  0.03716226  0.44501557     0.12100
H2330       H  0.88527803  0.06769188  0.50366525     0.13200
H2331       H  0.95251105  0.18008724  0.35900774     0.12300
H2332       H  0.96453201  0.20920656  0.41796815     0.11500
H2333       H  0.97537985  0.19870387  0.98336013     0.16900
H2334       H  0.41814000  0.11418714  0.03894944     0.12800
H2335       H  0.88866343  0.03434233  0.38132014     0.15700
H2336       H  0.94022130  0.12368399  0.32546414     0.15500
C2337       C  0.90854299  0.38908507  0.42989278    -0.17400
C2338       C  0.90587091  0.40576731  0.39617586    -0.19600
C2339       C  0.89264522  0.38603805  0.36633939     0.21100
C2340       C  0.88523522  0.34855181  0.36933841    -0.02500
C2341       C  0.88836614  0.33171721  0.40311078    -0.05600
C2342       C  0.89844191  0.35254823  0.43366268     0.21300
C2343       C  0.87974144  0.29456557  0.40665376     0.19500
C2344       C  0.86994529  0.27412437  0.37588544    -0.17100
C2345       C  0.86522401  0.29130695  0.34243518    -0.19300
C2346       C  0.87152261  0.32876166  0.33937658     0.21000
C2347       C  0.86099776  0.34762262  0.30829364    -0.32300
C2348       C  0.86334391  0.38559081  0.30792656     0.01700
C2349       C  0.88252963  0.40398341  0.33496224    -0.23600
C2350       C  0.89723374  0.33686358  0.46771172    -0.28200
C2351       C  0.88635111  0.30040362  0.47206234     0.07400
C2352       C  0.88014189  0.27887877  0.44106889    -0.26900
H2353       H  0.91703338  0.40508213  0.45323410     0.12100
H2354       H  0.91196239  0.43452103  0.39395370     0.13200
H2355       H  0.86427739  0.24531122  0.37810901     0.12300
H2356       H  0.85540725  0.27570381  0.31938453     0.11500
H2357       H  0.84661819  0.33365700  0.28659281     0.16900
H2358       H  0.88531978  0.43301858  0.33353461     0.12800
H2359       H  0.90586852  0.35316369  0.49070772     0.15700
H2360       H  0.87589637  0.24998811  0.44361092     0.15500
C2361       C  0.60505474  0.22872257  0.53406759    -0.17400
C2362       C  0.57129727  0.23258064  0.05102184    -0.19600
C2363       C  0.54189317  0.24750149  0.53184196     0.21100
C2364       C  0.54735570  0.26177508  0.49680732    -0.02500
C2365       C  0.58151631  0.25917473  0.48047717    -0.05600
C2366       C  0.61000230  0.24067303  0.49827654     0.21300
C2367       C  0.58596786  0.27155261  0.44467148     0.19500
C2368       C  0.55740017  0.28876164  0.42633320    -0.17100
C2369       C  0.52345378  0.29119749  0.44244304    -0.19300
C2370       C  0.51805860  0.27642076  0.47695865     0.25400
C2371       C  0.48336906  0.27408812  0.49088768    -0.32300
C2372       C  0.97705859  0.25714866  0.52442458     0.01700
C2373       C  0.50676972  0.24676937  0.04607580    -0.23600
C2374       C  0.64077383  0.23053749  0.47820116    -0.28200
C2375       C  0.64170995  0.23732144  0.44069576     0.07400
C2376       C  0.61688915  0.26192840  0.42577318    -0.26900
H2377       H  0.62640620  0.21440712  0.04809385     0.12100
H2378       H  0.56764311  0.22184419  0.07814841     0.13200
H2379       H  0.56052731  0.29752004  0.39847832     0.12300
H2380       H  0.50102473  0.30271885  0.42713729     0.11500
H2381       H  0.96117261  0.28522283  0.47508635     0.16900
H2382       H  0.00261076  0.23778453  0.07357473     0.12800
H2383       H  0.66104045  0.21274954  0.49009774     0.15700
H2384       H  0.61781065  0.26919232  0.39765017     0.15500
C2385       C  0.41894932  0.44314617  0.05667815    -0.17400
C2386       C  0.43891313  0.47538139  0.05816918    -0.19600
C2387       C  0.47589978  0.47435240  0.06689674     0.21100
C2388       C  0.49398464  0.44061012  0.07012466    -0.02500
C2389       C  0.97425442  0.40831517  0.06740446    -0.05600
C2390       C  0.93630813  0.40962017  0.06247284     0.21300
C2391       C  0.99227018  0.37484858  0.07159014     0.19500
C2392       C  0.02997323  0.37362217  0.07730410    -0.17100
C2393       C  0.04930644  0.40578507  0.08181287    -0.19300
C2394       C  0.03113948  0.43918715  0.07947108     0.21000
C2395       C  0.54824370  0.47086980  0.09036784    -0.32300
C2396       C  0.52935658  0.00357765  0.09060352     0.01700
C2397       C  0.49434341  0.00603346  0.07622051    -0.23600
C2398       C  0.91635430  0.37746540  0.06387810    -0.28200
C2399       C  0.93396016  0.34361696  0.06815069     0.07400
C2400       C  0.97231460  0.34303919  0.07071794    -0.26900
H2401       H  0.38992515  0.44444298  0.05172024     0.12100
H2402       H  0.42533112  0.50121944  0.05418169     0.13200
H2403       H  0.04411790  0.34786306  0.08009566     0.12300
H2404       H  0.07801005  0.40455588  0.08848434     0.11500
H2405       H  0.57447022  0.46943692  0.10318056     0.16900
H2406       H  0.48007667  0.03189252  0.07703715     0.12800
H2407       H  0.88718787  0.37930034  0.06122037     0.15700
H2408       H  0.98748538  0.31793675  0.07192542     0.15500
C2409       C  0.98522086  0.30911818  0.29333637    -0.17400
C2410       C  0.95185839  0.31061307  0.27532524    -0.19600
C2411       C  0.95049418  0.30825271  0.23734693     0.21100
C2412       C  0.98271598  0.30210133  0.21739944    -0.02500
C2413       C  0.51610759  0.30112968  0.23534972    -0.05600
C2414       C  0.51748251  0.30533768  0.27340944     0.21300
C2415       C  0.54823904  0.29759525  0.21495773     0.19500
C2416       C  0.54698705  0.29352639  0.17710603    -0.17100
C2417       C  0.51384369  0.29505262  0.15918182    -0.19300
C2418       C  0.98194832  0.30049251  0.17912475     0.21000
C2419       C  0.95015536  0.30919988  0.16135824    -0.32300
C2420       C  0.91968922  0.31966217  0.18082357     0.01700
C2421       C  0.91849144  0.31617760  0.21858815    -0.23600
C2422       C  0.55114334  0.30587678  0.29077456    -0.28200
C2423       C  0.58342431  0.30300343  0.27054441     0.07400
C2424       C  0.58131564  0.29848732  0.23257469    -0.26900
H2425       H  0.98588654  0.31205315  0.32265854     0.12100
H2426       H  0.92741660  0.31514131  0.29090076     0.13200
H2427       H  0.57167987  0.29039959  0.16133210     0.12300
H2428       H  0.51332059  0.29363146  0.12975493     0.11500
H2429       H  0.95067640  0.31437173  0.13280445     0.16900
H2430       H  0.89442574  0.32495344  0.23319505     0.12800
H2431       H  0.55199849  0.30764251  0.32006770     0.15700
H2432       H  0.60537740  0.29482473  0.21620335     0.15500
C2433       C  0.55266345  0.17406306  0.38008574    -0.17400
C2434       C  0.52875032  0.14520677  0.38267358    -0.19600
C2435       C  0.53021371  0.11688280  0.35728546     0.21100
C2436       C  0.55692429  0.11649387  0.32990780    -0.02500
C2437       C  0.58141368  0.14525685  0.32759955    -0.05600
C2438       C  0.57903125  0.17397584  0.35272451     0.21300
C2439       C  0.60908964  0.14465780  0.30118748     0.19500
C2440       C  0.61141867  0.11538479  0.27665472    -0.17100
C2441       C  0.58750826  0.08608753  0.27969007    -0.19300
C2442       C  0.56124024  0.08586149  0.30716139     0.21000
C2443       C  0.54231412  0.05418887  0.31546786    -0.32300
C2444       C  0.51754210  0.05436015  0.34428667     0.01700
C2445       C  0.50854283  0.08671827  0.36186907    -0.23600
C2446       C  0.60281907  0.20258470  0.35008917    -0.28200
C2447       C  0.62848268  0.20448270  0.32211848     0.07400
C2448       C  0.63314482  0.17390064  0.29919571    -0.26900
H2449       H  0.55125135  0.19584799  0.40002984     0.12100
H2450       H  0.51057859  0.14397148  0.40566417     0.13200
H2451       H  0.63200123  0.11489561  0.25561699     0.12300
H2452       H  0.58983336  0.06332300  0.26116415     0.11500
H2453       H  0.55053810  0.02864012  0.30321998     0.16900
H2454       H  0.49014758  0.08570475  0.38482716     0.12800
H2455       H  0.59927938  0.22437524  0.36879732     0.15700
H2456       H  0.65366643  0.17326315  0.27826889     0.15500
C2457       C  0.69855485  0.28458936  0.12983428    -0.17400
C2458       C  0.70309636  0.26783109  0.09593263    -0.19600
C2459       C  0.69041550  0.23229330  0.08991384     0.21100
C2460       C  0.67088713  0.21447393  0.11748054    -0.02500
C2461       C  0.66669228  0.23103899  0.15154258    -0.05600
C2462       C  0.68167968  0.26575339  0.15820399     0.21300
C2463       C  0.64963001  0.21174664  0.17969508     0.19500
C2464       C  0.63510987  0.17712985  0.17339072    -0.17100
C2465       C  0.64015704  0.16039626  0.13989368    -0.19300
C2466       C  0.65868832  0.17855003  0.11226833     0.21000
C2467       C  0.66907191  0.15960278  0.08141466    -0.32300
C2468       C  0.69324763  0.17506014  0.05667604     0.01700
C2469       C  0.70040126  0.21257772  0.05878308    -0.23600
C2470       C  0.68161079  0.27971105  0.19366449    -0.28200
C2471       C  0.66878864  0.25822837  0.22239223     0.07400
C2472       C  0.64975189  0.22612315  0.21443995    -0.26900
H2473       H  0.71008995  0.31132838  0.13445477     0.12100
H2474       H  0.71863542  0.28174103  0.07541358     0.13200
H2475       H  0.62214097  0.16206175  0.19503751     0.12300
H2476       H  0.63203720  0.13235647  0.13637101     0.11500
H2477       H  0.66188943  0.13136773  0.07992583     0.16900
H2478       H  0.71810155  0.22479269  0.03879741     0.12800
H2479       H  0.69240721  0.30651844  0.19894850     0.15700
H2480       H  0.63536639  0.21187040  0.23550897     0.15500
N2481       N  0.71791334  0.15198193  0.53702811    -0.03100
C2482       C  0.75472196  0.15123138  0.54318136    -0.00500
C2483       C  0.77013382  0.12692777  0.51863272    -0.23400
C2484       C  0.74224310  0.11189964  0.49792038    -0.23600
C2485       C  0.70990628  0.12632795  0.51072106    -0.00600
H2486       H  0.79866795  0.11994251  0.01665436     0.13200
H2487       H  0.74515787  0.09057335  0.97773267     0.13200
N2488       N  0.51281964  0.02231208  0.86485598    -0.03100
C2489       C  0.52537124  0.01933866  0.89954523    -0.00500
C2490       C  0.51504692  0.48556960  0.91249623    -0.23400
C2491       C  0.99653768  0.46765288  0.88451184    -0.23600
C2492       C  0.99508194  0.99115336  0.85514549    -0.00600
H2493       H  0.52061327  0.47483955  0.93925005     0.13200
H2494       H  0.98582962  0.44027502  0.88546478     0.13200
N2495       N  0.89630405  0.34473658  0.66370661    -0.03100
C2496       C  0.90167876  0.38131555  0.66481922    -0.00500
C2497       C  0.87569459  0.39718057  0.64247272    -0.23400
C2498       C  0.85514042  0.36918818  0.62696634    -0.23600
C2499       C  0.86975321  0.33674039  0.63907673    -0.00600
H2500       H  0.87209087  0.42600436  0.63769801     0.13200
H2501       H  0.83311460  0.37229088  0.60780855     0.13200
C2502       C  0.67021689  0.27042141  0.76058489     0.03500
C2503       C  0.67183153  0.24337854  0.78733574    -0.12600
C2504       C  0.64292585  0.24070724  0.81190268     0.01000
C2505       C  0.61911907  0.27048325  0.81527370    -0.11100
C2506       C  0.61887818  0.29708018  0.78856580     0.03500
C2507       C  0.65026245  0.30157225  0.76782562    -0.10600
H2508       H  0.68914412  0.22007789  0.78272493     0.09100
H2509       H  0.59502374  0.26805962  0.83157752     0.06700
H2510       H  0.65077779  0.32260147  0.74748818     0.06500
O2511       O  0.67420326  0.28264362  0.87876772    -0.81400
C2512       C  0.77997017  0.38293197  0.82198170     0.98000
O2513       O  0.78392120  0.34838641  0.82562350    -0.70500
O2514       O  0.77498098  0.31533931  0.89378647    -0.74100
Al2515     Al  0.75231796  0.30888510  0.84757619     1.49000
C2516       C  0.75999676  0.30161490  0.92152078     0.93200
O2517       O  0.69503492  0.37488572  0.91849842    -0.80300
O2518       O  0.65792835  0.36259158  0.81833404    -0.73900
Al2519     Al  0.68652430  0.32908802  0.89607026     1.90100
O2520       O  0.68514238  0.40819078  0.87021848    -0.72900
O2521       O  0.72383867  0.35365282  0.78357842    -0.72800
O2522       O  0.75289636  0.39789394  0.83726070    -0.78500
O2523       O  0.73409510  0.29776146  0.80079713    -0.76700
O2524       O  0.71495373  0.33854936  0.85797256    -1.12800
O2525       O  0.72857115  0.26302555  0.86586501    -0.72000
C2526       C  0.69644235  0.25667516  0.87747360     0.98700
C2527       C  0.68103976  0.40292032  0.90439047     0.95100
Al2528     Al  0.70587869  0.37731178  0.82985979     1.55600
O2529       O  0.72588511  0.30660838  0.92620755    -0.76600
C2530       C  0.73436444  0.32119073  0.77594732     0.99300
C2531       C  0.63299947  0.36065919  0.84186141     0.94200
O2532       O  0.64069944  0.34835963  0.87343294    -0.81900
N2533       N  0.54133061  0.03113356  0.61447240    -0.03100
C2534       C  0.53374743  0.03128397  0.65067712    -0.00500
C2535       C  0.54832536  0.06297686  0.66517823    -0.23400
C2536       C  0.56455197  0.08212523  0.63680123    -0.23600
C2537       C  0.56081426  0.06136618  0.60549768    -0.00600
H2538       H  0.54628498  0.07199794  0.69315157     0.13200
H2539       H  0.57673248  0.10867162  0.63893600     0.13200
N2540       N  0.65946395  0.21180489  0.91704772    -0.03100
C2541       C  0.65160292  0.17527291  0.91556106    -0.00500
C2542       C  0.67374294  0.15961897  0.88920561    -0.23400
C2543       C  0.69463548  0.18699086  0.87385234    -0.23600
C2544       C  0.68440676  0.21934772  0.89023478    -0.00600
H2545       H  0.67424991  0.13119020  0.88138791     0.13200
H2546       H  0.71346115  0.18381986  0.85147440     0.13200
N2547       N  0.83768961  0.40557538  0.78719002    -0.03100
C2548       C  0.80112630  0.40476692  0.79342874    -0.00500
C2549       C  0.78482688  0.42786642  0.76844056    -0.23400
C2550       C  0.81220600  0.44324616  0.74729884    -0.23600
C2551       C  0.84502573  0.43031195  0.76043341    -0.00600
H2552       H  0.75600388  0.43332000  0.76595133     0.13200
H2553       H  0.80842435  0.46315704  0.72606306     0.13200
C2554       C  0.91386500  0.30864597  0.56369554     0.03500
C2555       C  0.88548703  0.30764953  0.53842843    -0.12600
C2556       C  0.88900461  0.28407833  0.00854993     0.01000
C2557       C  0.91182770  0.25383298  0.01178620    -0.11100
C2558       C  0.93943245  0.25564214  0.03789065     0.03500
C2559       C  0.93315584  0.27627269  0.56879680    -0.10600
H2560       H  0.86889732  0.33147641  0.53493493     0.09100
H2561       H  0.91691970  0.23743794  0.98789188     0.06700
H2562       H  0.95317437  0.27449114  0.59012626     0.06500
O2563       O  0.64742670  0.11291056  0.52311259    -0.81400
C2564       C  0.54651455  0.04797466  0.92142977     0.98000
O2565       O  0.58037542  0.05425982  0.91572955    -0.70500
O2566       O  0.61068973  0.12441750  0.92350676    -0.74100
Al2567     Al  0.61993937  0.07836394  0.94575389     1.49000
C2568       C  0.62409504  0.15296522  0.93770259     0.93200
O2569       O  0.55212906  0.14621114  0.50470333    -0.80300
O2570       O  0.57173638  0.04747061  0.54267104    -0.73900
Al2571     Al  0.59960741  0.12681088  0.51207481     1.90100
O2572       O  0.52236625  0.09601919  0.51627603    -0.72900
O2573       O  0.57953178  0.51258597  0.47765621    -0.72800
O2574       O  0.53166997  0.06212408  0.94913006    -0.78500
O2575       O  0.63372384  0.03182957  0.96235245    -0.76700
O2576       O  0.59136376  0.08749536  0.48430568    -1.12800
O2577       O  0.66564138  0.09903927  0.96837494    -0.72000
C2578       C  0.67258477  0.11203017  0.50004479     0.98700
C2579       C  0.52546430  0.13053717  0.51956866     0.95100
Al2580     Al  0.55453312  0.05734793  0.49524486     1.55600
O2581       O  0.61943411  0.15794769  0.47182351    -0.76600
C2582       C  0.61136756  0.50605696  0.46541713     0.99300
C2583       C  0.57331511  0.07136012  0.56738177     0.94200
O2584       O  0.58330980  0.10362059  0.55892554    -0.81900
N2585       N  0.46955098  0.16376696  0.54583923    -0.03100
C2586       C  0.50407278  0.15092933  0.54832345    -0.00500
C2587       C  0.51689548  0.15799726  0.58310103    -0.23400
C2588       C  0.48913604  0.17513119  0.60223000    -0.23600
C2589       C  0.96013600  0.17894819  0.57849995    -0.00600
H2590       H  0.54342592  0.15116358  0.59377126     0.13200
H2591       H  0.49015651  0.18390562  0.63033181     0.13200
N2592       N  0.76175208  0.27756688  0.72741906    -0.03100
C2593       C  0.77946779  0.28128528  0.69519640    -0.00500
C2594       C  0.77899513  0.31783781  0.68602658    -0.23400
C2595       C  0.76109560  0.33662969  0.71357409    -0.23600
C2596       C  0.75071003  0.31134887  0.73926413    -0.00600
H2597       H  0.79109016  0.32999149  0.66228852     0.13200
H2598       H  0.75730866  0.36580302  0.71519876     0.13200
N2599       N  0.65442031  0.45908285  0.93728099    -0.03100
C2600       C  0.65270840  0.42392267  0.92598880    -0.00500
C2601       C  0.61866216  0.41049020  0.93472550    -0.23400
C2602       C  0.59919197  0.43868509  0.95096627    -0.23600
C2603       C  0.62197805  0.46862598  0.95242433    -0.00600
H2604       H  0.60852236  0.38344877  0.92902831     0.13200
H2605       H  0.57141619  0.43736531  0.96042335     0.13200
C2606       C  0.90991041  0.05595240  0.81357281     0.03500
C2607       C  0.89684780  0.07672061  0.78425792    -0.12600
C2608       C  0.86480156  0.06473845  0.76757553     0.01000
C2609       C  0.86100255  0.02746208  0.76407870    -0.11100
C2610       C  0.86823474  0.00831457  0.79606205     0.03500
C2611       C  0.89998929  0.01888775  0.81460775    -0.10600
H2612       H  0.90156226  0.10575145  0.78374950     0.09100
H2613       H  0.84079033  0.01751811  0.74525678     0.06700
H2614       H  0.91019315  0.00225791  0.83646378     0.06500
O2615       O  0.81897242  0.25646579  0.55082118    -0.81400
C2616       C  0.88098361  0.15266075  0.65214356     0.98000
O2617       O  0.87438457  0.14671215  0.61826765    -0.70500
O2618       O  0.80481863  0.15645637  0.58585140    -0.74100
Al2619     Al  0.85148669  0.17763061  0.57843053     1.49000
C2620       C  0.77703802  0.17172356  0.57206028     0.93200
O2621       O  0.78350745  0.23806357  0.64582593    -0.80300
O2622       O  0.88302287  0.27383643  0.62840565    -0.73900
Al2623     Al  0.80402224  0.24512562  0.59849448     1.90100
O2624       O  0.83366667  0.24808472  0.67650044    -0.72900
O2625       O  0.91733261  0.20779159  0.62015259    -0.72800
O2626       O  0.86673891  0.18039327  0.66694365    -0.78500
O2627       O  0.89822738  0.19318606  0.56559987    -0.76700
O2628       O  0.84261973  0.21633920  0.60724083    -1.12800
O2629       O  0.83260957  0.20103690  0.53303762    -0.72000
C2630       C  0.82063500  0.23294080  0.52577705     0.98700
C2631       C  0.79923584  0.25216597  0.67315797     0.95100
Al2632     Al  0.87244126  0.22649230  0.64469169     1.55600
O2633       O  0.77277801  0.20580632  0.57755698    -0.76600
C2634       C  0.92366467  0.19472232  0.58846776     0.99300
C2635       C  0.85952138  0.29886569  0.62648115     0.94200
O2636       O  0.82745173  0.29109286  0.61563319    -0.81900
N2637       N  0.90986269  0.09456336  0.68040450    -0.03100
C2638       C  0.90983216  0.13098425  0.67347889    -0.00500
C2639       C  0.93904621  0.14609434  0.69205144    -0.23400
C2640       C  0.95692740  0.11793741  0.71025056    -0.23600
C2641       C  0.93771815  0.08627298  0.70329400    -0.00600
H2642       H  0.94644195  0.17457467  0.69268559     0.13200
H2643       H  0.98079376  0.12057971  0.72730083     0.13200
N2644       N  0.58703431  0.39536499  0.80274834    -0.03100
C2645       C  0.55058987  0.40101479  0.80100177    -0.00500
C2646       C  0.53541900  0.38563286  0.83180671    -0.23400
C2647       C  0.56366191  0.36998249  0.85191027    -0.23600
C2648       C  0.59539973  0.37484159  0.83234649    -0.00600
H2649       H  0.00696416  0.38600810  0.83920895     0.13200
H2650       H  0.56096984  0.35610744  0.87753594     0.13200
N2651       N  0.78451278  0.27138261  0.98009759    -0.03100
C2652       C  0.78074717  0.27327492  0.94342279    -0.00500
C2653       C  0.79813521  0.24333952  0.92839835    -0.23400
C2654       C  0.81372119  0.22365831  0.95671424    -0.23600
C2655       C  0.80662163  0.24266985  0.98845191    -0.00600
H2656       H  0.79907356  0.23627679  0.89992716     0.13200
H2657       H  0.82974737  0.19904935  0.95407845     0.13200
C2658       C  0.66172472  0.49499344  0.52830080     0.03500
C2659       C  0.63275365  0.49980183  0.55187169    -0.12600
C2660       C  0.63975359  0.52032267  0.58305897     0.01000
C2661       C  0.66453843  0.04847849  0.58056456    -0.11100
C2662       C  0.69074119  0.04803370  0.55268593     0.03500
C2663       C  0.68581154  0.52405091  0.52359447    -0.10600
H2664       H  0.61283106  0.47832142  0.55348222     0.09100
H2665       H  0.66909679  0.06405902  0.60495035     0.06700
H2666       H  0.70657044  0.52150729  0.50299900     0.06500
O2667       O  0.92377299  0.02349708  0.71367931    -0.81400
C2668       C  0.02938846  0.42183707  0.77195114     0.98000
O2669       O  0.03283872  0.45633809  0.76874345    -0.70500
O2670       O  0.02546358  0.98996706  0.70081734    -0.74100
Al2671     Al  0.00145217  0.99549739  0.74662931     1.49000
C2672       C  0.01143647  0.00360791  0.67239127     0.93200
O2673       O  0.94406826  0.43065346  0.67325048    -0.80300
O2674       O  0.90778436  0.44100668  0.77266375    -0.73900
Al2675     Al  0.93632373  0.97646291  0.69621767     1.90100
O2676       O  0.93532810  0.39622364  0.72079571    -0.72900
O2677       O  0.97144400  0.44950300  0.80894255    -0.72800
O2678       O  0.00296730  0.40643021  0.75587727    -0.78500
O2679       O  0.98192885  0.00589648  0.79321467    -0.76700
O2680       O  0.96449542  0.46599079  0.73469343    -1.12800
O2681       O  0.97850516  0.04103288  0.72884017    -0.72000
C2682       C  0.94686152  0.04866240  0.71692756     0.98700
C2683       C  0.93011071  0.40237188  0.68690577     0.95100
Al2684     Al  0.95537615  0.42662385  0.76193930     1.55600
O2685       O  0.97720001  0.99898492  0.66670817    -0.76600
C2686       C  0.98094639  0.98192136  0.81759568     0.99300
C2687       C  0.88261145  0.44356614  0.74961801     0.94200
O2688       O  0.88986598  0.45706760  0.71837352    -0.81900
C2689       C  0.67055596  0.32828627  0.00685296    -0.17400
C2690       C  0.65287082  0.36172198  0.51084483    -0.19600
C2691       C  0.67263176  0.39265727  0.52121859     0.21100
C2692       C  0.70980298  0.38939430  0.53027079    -0.02500
C2693       C  0.72752449  0.35595386  0.02630861    -0.05600
C2694       C  0.70806390  0.32555423  0.01329506     0.21300
C2695       C  0.76547827  0.35388328  0.03185792     0.19500
C2696       C  0.78475508  0.38418720  0.04451698    -0.17100
C2697       C  0.76678724  0.41704673  0.55003558    -0.19300
C2698       C  0.72979144  0.42003620  0.54143021     0.21000
C2699       C  0.71303382  0.45367584  0.54177460    -0.32300
C2700       C  0.67754556  0.45810597  0.52832250     0.01700
C2701       C  0.65650334  0.42709367  0.52107940    -0.23600
C2702       C  0.72723007  0.29426324  0.00348564    -0.28200
C2703       C  0.76531679  0.29433992  0.00450852     0.07400
C2704       C  0.78401993  0.32293705  0.02064636    -0.26900
H2705       H  0.65534562  0.30514474  0.99686950     0.12100
H2706       H  0.62421534  0.36372228  0.50421918     0.13200
H2707       H  0.81394223  0.38296435  0.04826711     0.12300
H2708       H  0.78225220  0.44062017  0.55873574     0.11500
H2709       H  0.72793177  0.47647443  0.55248791     0.16900
H2710       H  0.62784541  0.42972044  0.51527591     0.12800
H2711       H  0.71317814  0.27176266  0.99052164     0.15700
H2712       H  0.81319224  0.32275140  0.01999136     0.15500
C2713       C  0.63906623  0.52209701  0.71757830    -0.17400
C2714       C  0.63636832  0.50318293  0.75031972    -0.19600
C2715       C  0.63278861  0.46525737  0.74992348     0.21100
C2716       C  0.63648919  0.44580667  0.71694734    -0.02500
C2717       C  0.64040660  0.46465463  0.68442403    -0.05600
C2718       C  0.63926002  0.50300550  0.68448176     0.21300
C2719       C  0.64258339  0.44504034  0.65160238     0.19500
C2720       C  0.64231995  0.40691296  0.65133685    -0.17100
C2721       C  0.63618442  0.38826482  0.68341500    -0.19300
C2722       C  0.63185690  0.40775300  0.71586810     0.21000
C2723       C  0.61836343  0.39060131  0.74616295    -0.32300
C2724       C  0.61181014  0.41012218  0.77775004     0.01700
C2725       C  0.62148597  0.44674248  0.78084446    -0.23600
C2726       C  0.63686575  0.52133601  0.65143392    -0.28200
C2727       C  0.63790450  0.50171794  0.61849277     0.07400
C2728       C  0.64311312  0.46374078  0.61928586    -0.26900
H2729       H  0.63953387  0.05156781  0.71794070     0.12100
H2730       H  0.63468862  0.51821827  0.77566177     0.13200
H2731       H  0.64436474  0.39170674  0.62608552     0.12300
H2732       H  0.63313723  0.35892385  0.68261714     0.11500
H2733       H  0.60811558  0.36349536  0.74375994     0.16900
H2734       H  0.61549610  0.46149270  0.80573503     0.12800
H2735       H  0.63400952  0.05063899  0.65144066     0.15700
H2736       H  0.64636814  0.44798690  0.59467104     0.15500
C2737       C  0.79040555  0.11296011  0.66452646    -0.17400
C2738       C  0.76148154  0.11346705  0.64060831    -0.19600
C2739       C  0.76096863  0.08902157  0.61141628     0.21100
C2740       C  0.79014277  0.06527050  0.60485299    -0.02500
C2741       C  0.81906542  0.06462818  0.62919679    -0.05600
C2742       C  0.81794017  0.08723742  0.66011401     0.21300
C2743       C  0.84994318  0.04310933  0.62177321     0.19500
C2744       C  0.85014881  0.02031677  0.59113284    -0.17100
C2745       C  0.82037438  0.01979110  0.56739460    -0.19300
C2746       C  0.79024907  0.04237251  0.57409983     0.21000
C2747       C  0.75921298  0.04098543  0.55217458    -0.32300
C2748       C  0.72775605  0.06074590  0.56239216     0.01700
C2749       C  0.73089578  0.08717058  0.58962323    -0.23600
C2750       C  0.84669966  0.08717346  0.68382831    -0.28200
C2751       C  0.87951521  0.07255973  0.67247297     0.07400
C2752       C  0.88101438  0.04808182  0.64317673    -0.26900
H2753       H  0.79198008  0.13331843  0.68579324     0.12100
H2754       H  0.73968712  0.13296842  0.64473403     0.13200
H2755       H  0.87313968  0.00292807  0.58574590     0.12300
H2756       H  0.82086968  0.50177486  0.54416250     0.11500
H2757       H  0.75918611  0.52244726  0.52949593     0.16900
H2758       H  0.70864983  0.10433697  0.59675222     0.12800
H2759       H  0.84695625  0.10674722  0.70597633     0.15700
H2760       H  0.90690747  0.03681212  0.63464602     0.15500
C2761       C  0.70783734  0.02188759  0.84048601    -0.17400
C2762       C  0.73754858  0.02133807  0.81719961    -0.19600
C2763       C  0.77124204  0.00817179  0.82942435     0.21100
C2764       C  0.77576104  0.49694348  0.86547245    -0.02500
C2765       C  0.74570145  0.49645635  0.88862022    -0.05600
C2766       C  0.71143621  0.50833066  0.87575277     0.21300
C2767       C  0.74921687  0.48116476  0.92349276     0.19500
C2768       C  0.78332403  0.46964802  0.93613016    -0.17100
C2769       C  0.81366204  0.47185158  0.91355836    -0.19300
C2770       C  0.80986246  0.48459125  0.87787058     0.21000
C2771       C  0.83968962  0.48569704  0.85456480    -0.32300
C2772       C  0.83584972  0.99750476  0.81835979     0.01700
C2773       C  0.80049871  0.00639282  0.80596950    -0.23600
C2774       C  0.68072845  0.50236819  0.89675725    -0.28200
C2775       C  0.68381829  0.48209554  0.92852618     0.07400
C2776       C  0.71793603  0.47384302  0.94320352    -0.26900
H2777       H  0.68171350  0.03108551  0.83034013     0.12100
H2778       H  0.73408482  0.03076879  0.78952682     0.13200
H2779       H  0.78628792  0.45799577  0.96299126     0.12300
H2780       H  0.83978813  0.46251213  0.92356499     0.11500
H2781       H  0.86581500  0.47848930  0.86568476     0.16900
H2782       H  0.79505928  0.01380476  0.77827683     0.12800
H2783       H  0.65393967  0.50789420  0.88565610     0.15700
H2784       H  0.71973312  0.45714798  0.96722807     0.15500
C2785       C  0.80324994  0.20110707  0.82483614    -0.17400
C2786       C  0.81623754  0.16664289  0.83337871    -0.19600
C2787       C  0.80797110  0.13736142  0.81030736     0.21100
C2788       C  0.78083054  0.14072717  0.78358407    -0.02500
C2789       C  0.76690110  0.17520665  0.77573889    -0.05600
C2790       C  0.78115105  0.20572518  0.79425089     0.21300
C2791       C  0.74471457  0.17966079  0.74481982     0.19500
C2792       C  0.73028764  0.14892990  0.72719916    -0.17100
C2793       C  0.74427904  0.11440967  0.73520401    -0.19300
C2794       C  0.77323329  0.11141965  0.75988413     0.21000
C2795       C  0.79910592  0.08354722  0.75652549    -0.32300
C2796       C  0.83119375  0.08535326  0.77740384     0.01700
C2797       C  0.83133783  0.10792974  0.80852298    -0.23600
C2798       C  0.77757222  0.23985033  0.77883136    -0.28200
C2799       C  0.75874685  0.24405741  0.74625447     0.07400
C2800       C  0.74154771  0.21422074  0.72965247    -0.26900
H2801       H  0.81346097  0.22443514  0.83961270     0.12100
H2802       H  0.83650599  0.16398354  0.85464907     0.13200
H2803       H  0.71151083  0.15192497  0.70467560     0.12300
H2804       H  0.73642940  0.09143800  0.71837814     0.11500
H2805       H  0.79641924  0.06361369  0.73492082     0.16900
H2806       H  0.85297894  0.10643660  0.82831470     0.12800
H2807       H  0.79249948  0.26266721  0.79006280     0.15700
H2808       H  0.72840345  0.21748512  0.70354562     0.15500
C2809       C  0.88901503  0.06378873  0.94564325    -0.17400
C2810       C  0.89390529  0.08121508  0.97902962    -0.19600
C2811       C  0.91231172  0.11448950  0.98063701     0.21100
C2812       C  0.92273626  0.13204322  0.94817025    -0.02500
C2813       C  0.91733631  0.11472325  0.91457934    -0.05600
C2814       C  0.90221698  0.07971001  0.91366889     0.21300
C2815       C  0.92955553  0.13125452  0.88230034     0.19500
C2816       C  0.94385766  0.16659711  0.88363206    -0.17100
C2817       C  0.95057389  0.18326642  0.91720166    -0.19300
C2818       C  0.94205228  0.16502668  0.94946765     0.21000
C2819       C  0.95569355  0.17698667  0.48272125    -0.32300
C2820       C  0.94726798  0.15843410  0.51471742     0.01700
C2821       C  0.92371248  0.12868769  0.51397357    -0.23600
C2822       C  0.90146450  0.06060224  0.88105224    -0.28200
C2823       C  0.91597678  0.07537213  0.84879839     0.07400
C2824       C  0.92914920  0.11138792  0.84971628    -0.26900
H2825       H  0.87638988  0.03716376  0.94501552     0.12100
H2826       H  0.88527717  0.06769388  0.00366505     0.13200
H2827       H  0.95251128  0.18008824  0.85900732     0.12300
H2828       H  0.96453227  0.20920775  0.91796767     0.11500
H2829       H  0.97537942  0.19870275  0.48336041     0.16900
H2830       H  0.41814036  0.11418545  0.53894973     0.12800
H2831       H  0.88866399  0.03434327  0.88132032     0.15700
H2832       H  0.94022179  0.12368470  0.82546395     0.15500
C2833       C  0.90854424  0.38908541  0.92989173    -0.17400
C2834       C  0.90587211  0.40576756  0.89617476    -0.19600
C2835       C  0.89264626  0.38603824  0.86633841     0.21100
C2836       C  0.88523642  0.34855197  0.86933746    -0.02500
C2837       C  0.88836749  0.33171745  0.90310984    -0.05600
C2838       C  0.89844310  0.35254857  0.93366171     0.21300
C2839       C  0.87974296  0.29456577  0.90665285     0.19500
C2840       C  0.86994689  0.27412448  0.87588458    -0.17100
C2841       C  0.86522530  0.29130702  0.84243436    -0.19300
C2842       C  0.87152361  0.32876178  0.83937576     0.21000
C2843       C  0.86099818  0.34762272  0.80829302    -0.32300
C2844       C  0.86334417  0.38559091  0.80792599     0.01700
C2845       C  0.88253012  0.40398358  0.83496145    -0.23600
C2846       C  0.89723470  0.33686403  0.96771080    -0.28200
C2847       C  0.88635199  0.30040408  0.97206142     0.07400
C2848       C  0.88014330  0.27887908  0.94106799    -0.26900
H2849       H  0.91703465  0.40508252  0.95323300     0.12100
H2850       H  0.91196353  0.43452128  0.89395251     0.13200
H2851       H  0.86427911  0.24531130  0.87810820     0.12300
H2852       H  0.85540846  0.27570384  0.81938378     0.11500
H2853       H  0.84661845  0.33365704  0.78659234     0.16900
H2854       H  0.88532002  0.43301879  0.83353382     0.12800
H2855       H  0.90586933  0.35316417  0.99070682     0.15700
H2856       H  0.87589792  0.24998838  0.94361004     0.15500
C2857       C  0.60505474  0.22872255  0.03406765    -0.17400
C2858       C  0.57129725  0.23258040  0.55102177    -0.19600
C2859       C  0.54189335  0.24750215  0.03184210     0.21100
C2860       C  0.54735604  0.26177580  0.99680751    -0.02500
C2861       C  0.58151664  0.25917511  0.98047733    -0.05600
C2862       C  0.61000248  0.24067312  0.99827667     0.21300
C2863       C  0.58596829  0.27155291  0.94467162     0.19500
C2864       C  0.55740075  0.28876220  0.92633336    -0.17100
C2865       C  0.52345444  0.29119855  0.94244328    -0.19300
C2866       C  0.51805909  0.27642186  0.97695888     0.25400
C2867       C  0.48336950  0.27408944  0.99088787    -0.32300
C2868       C  0.97705877  0.25714983  0.02442467     0.01700
C2869       C  0.50676958  0.24676843  0.54607567    -0.23600
C2870       C  0.64077402  0.23053750  0.97820133    -0.28200
C2871       C  0.64171029  0.23732152  0.94069593     0.07400
C2872       C  0.61688948  0.26192842  0.92577330    -0.26900
H2873       H  0.62640633  0.21440739  0.54809384     0.12100
H2874       H  0.56764317  0.22184402  0.57814839     0.13200
H2875       H  0.56052797  0.29752050  0.89847843     0.12300
H2876       H  0.50102550  0.30272023  0.92713758     0.11500
H2877       H  0.96117308  0.28522425  0.97508650     0.16900
H2878       H  0.00261084  0.23778368  0.57357466     0.12800
H2879       H  0.66104056  0.21274943  0.99009793     0.15700
H2880       H  0.61781098  0.26919204  0.89765020     0.15500
C2881       C  0.41894908  0.44314521  0.55668061    -0.17400
C2882       C  0.43891280  0.47538050  0.55817133    -0.19600
C2883       C  0.47589965  0.47435164  0.56689800     0.21100
C2884       C  0.49398470  0.44060942  0.57012544    -0.02500
C2885       C  0.97425454  0.40831440  0.56740557    -0.05600
C2886       C  0.93630815  0.40961925  0.56247481     0.21300
C2887       C  0.99227055  0.37484785  0.57159059     0.19500
C2888       C  0.02997375  0.37362160  0.57730372    -0.17100
C2889       C  0.04930693  0.40578461  0.58181203    -0.19300
C2890       C  0.03113978  0.43918664  0.57947074     0.21000
C2891       C  0.54824419  0.47086932  0.59036715    -0.32300
C2892       C  0.52935554  0.00357895  0.59060315     0.01700
C2893       C  0.49434188  0.00603498  0.57622139    -0.23600
C2894       C  0.91635453  0.37746437  0.56387995    -0.28200
C2895       C  0.93396061  0.34361598  0.56815170     0.07400
C2896       C  0.97231511  0.34303834  0.57071843    -0.26900
H2897       H  0.38992481  0.44444189  0.55172333     0.12100
H2898       H  0.42533062  0.50121852  0.55418422     0.13200
H2899       H  0.04411862  0.34786257  0.58009484     0.12300
H2900       H  0.07801074  0.40455552  0.58848268     0.11500
H2901       H  0.57447097  0.46943652  0.60317931     0.16900
H2902       H  0.48007484  0.03189386  0.57703965     0.12800
H2903       H  0.88718807  0.37929918  0.56122264     0.15700
H2904       H  0.98748599  0.31793592  0.57192540     0.15500
C2905       C  0.98522169  0.30911962  0.79333623    -0.17400
C2906       C  0.95185917  0.31061407  0.77532520    -0.19600
C2907       C  0.95049479  0.30825266  0.73734698     0.21100
C2908       C  0.98271647  0.30210060  0.71739949    -0.02500
C2909       C  0.51610815  0.30112939  0.73534965    -0.05600
C2910       C  0.51748324  0.30533851  0.77340925     0.21300
C2911       C  0.54823950  0.29759434  0.71495762     0.19500
C2912       C  0.54698730  0.29352434  0.67710603    -0.17100
C2913       C  0.51384385  0.29505025  0.65918194    -0.19300
C2914       C  0.98194861  0.30049087  0.67912484     0.21000
C2915       C  0.95015568  0.30919834  0.66135830    -0.32300
C2916       C  0.91968970  0.31966130  0.68082356     0.01700
C2917       C  0.91849202  0.31617729  0.71858817    -0.23600
C2918       C  0.55114410  0.30587795  0.79077422    -0.28200
C2919       C  0.58342496  0.30300401  0.77054405     0.07400
C2920       C  0.58131618  0.29848704  0.73257442    -0.26900
H2921       H  0.98588750  0.31205543  0.82265830     0.12100
H2922       H  0.92741746  0.31514284  0.79090070     0.13200
H2923       H  0.57168006  0.29039703  0.66133208     0.12300
H2924       H  0.51332058  0.29362837  0.62975507     0.11500
H2925       H  0.95067673  0.31436986  0.63280449     0.16900
H2926       H  0.89442641  0.32495356  0.73319500     0.12800
H2927       H  0.55199935  0.30764427  0.82006731     0.15700
H2928       H  0.60537789  0.29482417  0.71620306     0.15500
C2929       C  0.55266234  0.17406361  0.88008476    -0.17400
C2930       C  0.52874970  0.14520690  0.88267267    -0.19600
C2931       C  0.53021357  0.11688288  0.85728465     0.21100
C2932       C  0.55692429  0.11649424  0.82990715    -0.02500
C2933       C  0.58141332  0.14525757  0.82759894    -0.05600
C2934       C  0.57903033  0.17397668  0.85272374     0.21300
C2935       C  0.60908961  0.14465863  0.80118728     0.19500
C2936       C  0.61141915  0.11538558  0.77665462    -0.17100
C2937       C  0.58750903  0.08608809  0.77968983    -0.19300
C2938       C  0.56124084  0.08586178  0.80716097     0.21000
C2939       C  0.54231514  0.05418890  0.81546750    -0.32300
C2940       C  0.51754291  0.05436000  0.84428612     0.01700
C2941       C  0.50854306  0.08671807  0.86186826    -0.23600
C2942       C  0.60281795  0.20258577  0.85008858    -0.28200
C2943       C  0.62848216  0.20448368  0.82211841     0.07400
C2944       C  0.63314480  0.17390146  0.79919591    -0.26900
H2945       H  0.55124979  0.19584863  0.90002876     0.12100
H2946       H  0.51057799  0.14397133  0.90566324     0.13200
H2947       H  0.63200195  0.11489652  0.75561712     0.12300
H2948       H  0.58983451  0.06332354  0.76116401     0.11500
H2949       H  0.55053949  0.02864019  0.80321977     0.16900
H2950       H  0.49014762  0.08570442  0.88482618     0.12800
H2951       H  0.59927784  0.22437634  0.86879670     0.15700
H2952       H  0.65366694  0.17326372  0.77826964     0.15500
C2953       C  0.69855517  0.28458888  0.62983418    -0.17400
C2954       C  0.70309659  0.26783058  0.59593254    -0.19600
C2955       C  0.69041565  0.23229283  0.58991380     0.21100
C2956       C  0.67088736  0.21447348  0.61748057    -0.02500
C2957       C  0.66669264  0.23103856  0.65154262    -0.05600
C2958       C  0.68168007  0.26575296  0.65820393     0.21300
C2959       C  0.64963047  0.21174624  0.67969522     0.19500
C2960       C  0.63511037  0.17712942  0.67339096    -0.17100
C2961       C  0.64015748  0.16039580  0.63989391    -0.19300
C2962       C  0.65868852  0.17854960  0.61226844     0.21000
C2963       C  0.66907185  0.15960238  0.58141465    -0.32300
C2964       C  0.69324758  0.17505968  0.55667599     0.01700
C2965       C  0.70040127  0.21257721  0.55878302    -0.23600
C2966       C  0.68161125  0.27971068  0.69366438    -0.28200
C2967       C  0.66878908  0.25822814  0.72239220     0.07400
C2968       C  0.64975240  0.22612284  0.71444006    -0.26900
H2969       H  0.71009031  0.31132790  0.63445464     0.12100
H2970       H  0.71863571  0.28174045  0.57541348     0.13200
H2971       H  0.62214155  0.16206133  0.69503780     0.12300
H2972       H  0.63203784  0.13235596  0.63637133     0.11500
H2973       H  0.66188921  0.13136737  0.57992580     0.16900
H2974       H  0.71810155  0.22479214  0.53879728     0.12800
H2975       H  0.69240763  0.30651811  0.69894829     0.15700
H2976       H  0.63536688  0.21187016  0.73550911     0.15500
N2977       N  0.71797684  0.65194791  0.03698322    -0.03100
C2978       C  0.75478487  0.65119581  0.04314422    -0.00500
C2979       C  0.77019628  0.62687612  0.01861060    -0.23400
C2980       C  0.74230647  0.61184197  0.99790037    -0.23600
C2981       C  0.70997087  0.62628586  0.01068599    -0.00600
H2982       H  0.79872917  0.61988265  0.51664147     0.13200
H2983       H  0.74522011  0.59050244  0.47772520     0.13200
N2984       N  0.51291038  0.52227623  0.36484771    -0.03100
C2985       C  0.52543361  0.51933098  0.39954879    -0.00500
C2986       C  0.51498050  0.98557314  0.41247917    -0.23400
C2987       C  0.99645442  0.96767702  0.38449321    -0.23600
C2988       C  0.99517183  0.49111467  0.35515345    -0.00600
H2989       H  0.52055981  0.97482518  0.43922308     0.13200
H2990       H  0.98574855  0.94029815  0.38543438     0.13200
N2991       N  0.89627316  0.84472213  0.16373627    -0.03100
C2992       C  0.90170211  0.88129559  0.16480272    -0.00500
C2993       C  0.87576582  0.89716645  0.14240554    -0.23400
C2994       C  0.85519855  0.86918146  0.12690518    -0.23600
C2995       C  0.86975977  0.83673123  0.13906575    -0.00600
H2996       H  0.87220770  0.92598840  0.13758705     0.13200
H2997       H  0.83320610  0.87228765  0.10771385     0.13200
C2998       C  0.67019349  0.77045110  0.26053690     0.03500
C2999       C  0.67180178  0.74345694  0.28733821    -0.12600
C3000       C  0.64287950  0.74080888  0.31189252     0.01000
C3001       C  0.61908634  0.77059642  0.31522420    -0.11100
C3002       C  0.61883742  0.79714294  0.28846544     0.03500
C3003       C  0.65020170  0.80159719  0.26768917    -0.10600
H3004       H  0.68914559  0.72016884  0.28278450     0.09100
H3005       H  0.59499639  0.76821125  0.33153952     0.06700
H3006       H  0.65068278  0.82256411  0.24728708     0.06500
O3007       O  0.67422528  0.78267033  0.37872283    -0.81400
C3008       C  0.77995260  0.88297293  0.32191538     0.98000
O3009       O  0.78392051  0.84842958  0.32557494    -0.70500
O3010       O  0.77500785  0.81535797  0.39374598    -0.74100
Al3011     Al  0.75233203  0.80891396  0.34753171     1.49000
C3012       C  0.76003082  0.80162893  0.42148402     0.93200
O3013       O  0.69505488  0.87491143  0.41845921    -0.80300
O3014       O  0.65792317  0.86258062  0.31829267    -0.73900
Al3015     Al  0.68654635  0.82910918  0.39603320     1.90100
O3016       O  0.68512679  0.90820342  0.37017542    -0.72900
O3017       O  0.72383661  0.85367074  0.28352469    -0.72800
O3018       O  0.75287749  0.89793168  0.33719509    -0.78500
O3019       O  0.73410133  0.79778802  0.30075483    -0.76700
O3020       O  0.71496686  0.83857372  0.35793145    -1.12800
O3021       O  0.72858989  0.76304700  0.36581784    -0.72000
C3022       C  0.69645779  0.75669735  0.37741924     0.98700
C3023       C  0.68103630  0.90293625  0.40435116     0.95100
Al3024     Al  0.70586948  0.87732715  0.32980994     1.55600
O3025       O  0.72591713  0.80662089  0.42616986    -0.76600
C3026       C  0.73437408  0.82121086  0.27590024     0.99300
C3027       C  0.63300309  0.86067256  0.34183147     0.94200
O3028       O  0.64071355  0.84838272  0.37340493    -0.81900
N3029       N  0.54132942  0.53112717  0.11446831    -0.03100
C3030       C  0.53375373  0.53126139  0.15067742    -0.00500
C3031       C  0.54837069  0.56293113  0.16519165    -0.23400
C3032       C  0.56461388  0.58207962  0.13682339    -0.23600
C3033       C  0.56084690  0.56134508  0.10550768    -0.00600
H3034       H  0.54635055  0.57193608  0.19317168     0.13200
H3035       H  0.57683223  0.60860803  0.13897360     0.13200
N3036       N  0.65947072  0.71182754  0.41698514    -0.03100
C3037       C  0.65160083  0.67529613  0.41550748    -0.00500
C3038       C  0.67371546  0.65964269  0.38913018    -0.23400
C3039       C  0.69460858  0.68701027  0.37376742    -0.23600
C3040       C  0.68440505  0.71936742  0.39016382    -0.00600
H3041       H  0.67421206  0.63121433  0.38131064     0.13200
H3042       H  0.71342076  0.68383580  0.35137887     0.13200
N3043       N  0.83765477  0.90560583  0.28709628    -0.03100
C3044       C  0.80109515  0.90480305  0.29334636    -0.00500
C3045       C  0.78479277  0.92789151  0.26834844    -0.23400
C3046       C  0.81217079  0.94325643  0.24719078    -0.23600
C3047       C  0.84499211  0.93032173  0.26032438    -0.00600
H3048       H  0.75596970  0.93334594  0.26586141     0.13200
H3049       H  0.80838667  0.96315551  0.22594428     0.13200
C3050       C  0.91388456  0.80854220  0.06362245     0.03500
C3051       C  0.88555327  0.80761887  0.03829377    -0.12600
C3052       C  0.88906366  0.78405998  0.50840531     0.01000
C3053       C  0.91185926  0.75379445  0.51163199    -0.11100
C3054       C  0.93945074  0.75557222  0.53774784     0.03500
C3055       C  0.93314721  0.77614680  0.06868059    -0.10600
H3056       H  0.86897359  0.83145345  0.03480331     0.09100
H3057       H  0.91695723  0.73741897  0.48772683     0.06700
H3058       H  0.95312050  0.77428075  0.09004081     0.06500
O3059       O  0.64749993  0.61284955  0.02309232    -0.81400
C3060       C  0.54655941  0.54798457  0.42142429     0.98000
O3061       O  0.58041855  0.55426651  0.41572723    -0.70500
O3062       O  0.61070944  0.62443057  0.42350129    -0.74100
Al3063     Al  0.61997613  0.57837154  0.44574210     1.49000
C3064       C  0.62412666  0.65297796  0.43768853     0.93200
O3065       O  0.55222544  0.64623252  0.00475196    -0.80300
O3066       O  0.57175455  0.54747073  0.04267152    -0.73900
Al3067     Al  0.59968908  0.62679738  0.01208623     1.90100
O3068       O  0.52242112  0.59605181  0.01627916    -0.72900
O3069       O  0.57949613  0.01256985  0.97765096    -0.72800
O3070       O  0.53171229  0.56214273  0.44912021    -0.78500
O3071       O  0.63376291  0.53183880  0.46234644    -0.76700
O3072       O  0.59141093  0.58750029  0.98430541    -1.12800
O3073       O  0.66568823  0.59904129  0.46833480    -0.72000
C3074       C  0.67264727  0.61199655  0.00001331     0.98700
C3075       C  0.52555306  0.63056456  0.01960910     0.95100
Al3076     Al  0.55457015  0.55736529  0.99524265     1.55600
O3077       O  0.61951264  0.65794459  0.97182188    -0.76600
C3078       C  0.61133005  0.00604511  0.96540640     0.99300
C3079       C  0.57335658  0.57134815  0.06739114     0.94200
O3080       O  0.58338875  0.60360045  0.05894355    -0.81900
N3081       N  0.46964880  0.66378555  0.04589228    -0.03100
C3082       C  0.50417072  0.65095573  0.04837310    -0.00500
C3083       C  0.51699399  0.65803534  0.08314930    -0.23400
C3084       C  0.48922794  0.67516850  0.10227651    -0.23600
C3085       C  0.96022339  0.67896754  0.07854647    -0.00600
H3086       H  0.54352672  0.65120731  0.09381952     0.13200
H3087       H  0.49024693  0.68395047  0.13037589     0.13200
N3088       N  0.76178462  0.77757902  0.22738667    -0.03100
C3089       C  0.77949932  0.78128619  0.19516166    -0.00500
C3090       C  0.77904079  0.81783934  0.18599124    -0.23400
C3091       C  0.76114207  0.83663946  0.21353486    -0.23600
C3092       C  0.75074216  0.81136429  0.23922467    -0.00600
H3093       H  0.79114203  0.82998844  0.16225413     0.13200
H3094       H  0.75736205  0.86581382  0.21515526     0.13200
N3095       N  0.65439454  0.95907872  0.43726503    -0.03100
C3096       C  0.65269078  0.92392424  0.42595234    -0.00500
C3097       C  0.61864088  0.91048751  0.43466931    -0.23400
C3098       C  0.59916124  0.93867592  0.45091324    -0.23600
C3099       C  0.62194540  0.96861734  0.45239711    -0.00600
H3100       H  0.60850563  0.88344712  0.42896055     0.13200
H3101       H  0.57138176  0.93735025  0.46035829     0.13200
C3102       C  0.90984656  0.55613648  0.31359023     0.03500
C3103       C  0.89671354  0.57692202  0.28431908    -0.12600
C3104       C  0.86468629  0.56488939  0.26764034     0.01000
C3105       C  0.86097826  0.52760804  0.26408061    -0.11100
C3106       C  0.86824360  0.50843632  0.29604006     0.03500
C3107       C  0.89998439  0.51905005  0.31459332    -0.10600
H3108       H  0.90135974  0.60596543  0.28385375     0.09100
H3109       H  0.84078918  0.51764258  0.24524378     0.06700
H3110       H  0.91022498  0.50240926  0.33642478     0.06500
O3111       O  0.81903397  0.75645189  0.05079494    -0.81400
C3112       C  0.88103759  0.65264493  0.15214386     0.98000
O3113       O  0.87444359  0.64669921  0.11826507    -0.70500
O3114       O  0.80488349  0.65643567  0.08581276    -0.74100
Al3115     Al  0.85155550  0.67761965  0.07841592     1.49000
C3116       C  0.77710158  0.67169821  0.07201784     0.93200
O3117       O  0.78353738  0.73805483  0.14579086    -0.80300
O3118       O  0.88304435  0.77382977  0.12838936    -0.73900
Al3119     Al  0.80406760  0.74510743  0.09846169     1.90100
O3120       O  0.83369030  0.74806920  0.17647922    -0.72900
O3121       O  0.91738385  0.70779522  0.12017354    -0.72800
O3122       O  0.86678818  0.68037810  0.16694212    -0.78500
O3123       O  0.89830896  0.69317916  0.06561380    -0.76700
O3124       O  0.84266844  0.71632409  0.10722499    -1.12800
O3125       O  0.83268747  0.70103082  0.03300710    -0.72000
C3126       C  0.82070293  0.73293369  0.02574663     0.98700
C3127       C  0.79926181  0.75215738  0.17312716     0.95100
Al3128     Al  0.87247666  0.72648408  0.14468526     1.55600
O3129       O  0.77283586  0.70578092  0.07751310    -0.76600
C3130       C  0.92373659  0.69472437  0.08849535     0.99300
C3131       C  0.85953966  0.79885626  0.12646059     0.94200
O3132       O  0.82747650  0.79107913  0.11560251    -0.81900
N3133       N  0.90988765  0.59457371  0.18050665    -0.03100
C3134       C  0.90989728  0.63097434  0.17348057    -0.00500
C3135       C  0.93919215  0.64607565  0.19193306    -0.23400
C3136       C  0.95707407  0.61793079  0.21015708    -0.23600
C3137       C  0.93778848  0.58628291  0.20333789    -0.00600
H3138       H  0.94664923  0.67454127  0.19246329     0.13200
H3139       H  0.98100334  0.62057058  0.22711903     0.13200
N3140       N  0.58702235  0.89535672  0.30270788    -0.03100
C3141       C  0.55058445  0.90106946  0.30101543    -0.00500
C3142       C  0.53544047  0.88576572  0.33187259    -0.23400
C3143       C  0.56369095  0.87010617  0.35195847    -0.23600
C3144       C  0.59540536  0.87487794  0.33233347    -0.00600
H3145       H  0.00699873  0.88620047  0.33932143     0.13200
H3146       H  0.56101807  0.85628414  0.37761589     0.13200
N3147       N  0.78455953  0.77138003  0.48007005    -0.03100
C3148       C  0.78079731  0.77329056  0.44339201    -0.00500
C3149       C  0.79821073  0.74337275  0.42836251    -0.23400
C3150       C  0.81380489  0.72368647  0.45667174    -0.23600
C3151       C  0.80668705  0.74267478  0.48841790    -0.00600
H3152       H  0.79916011  0.73632394  0.39989107     0.13200
H3153       H  0.82984710  0.69908894  0.45402588     0.13200
C3154       C  0.66165168  0.99489192  0.02826290     0.03500
C3155       C  0.63268872  0.99970763  0.05184456    -0.12600
C3156       C  0.63969902  0.02026305  0.08300589     0.01000
C3157       C  0.66461519  0.54852228  0.08066220    -0.11100
C3158       C  0.69081510  0.54810893  0.05278261     0.03500
C3159       C  0.68573269  0.02394878  0.02352370    -0.10600
H3160       H  0.61278455  0.97821012  0.05350217     0.09100
H3161       H  0.66918164  0.56407224  0.10506491     0.06700
H3162       H  0.70648868  0.02138989  0.00292847     0.06500
O3163       O  0.92380716  0.52352247  0.21380285    -0.81400
C3164       C  0.02936512  0.92187822  0.27196642     0.98000
O3165       O  0.03280077  0.95638031  0.26874792    -0.70500
O3166       O  0.02547420  0.48993235  0.20081196    -0.74100
Al3167     Al  0.00149598  0.49547043  0.24664567     1.49000
C3168       C  0.01143443  0.50359158  0.17239864     0.93200
O3169       O  0.94412005  0.93061374  0.17321910    -0.80300
O3170       O  0.90774271  0.94102905  0.27258229    -0.73900
Al3171     Al  0.93631723  0.47648948  0.19629106     1.90100
O3172       O  0.93533337  0.89622187  0.22077957    -0.72900
O3173       O  0.97137825  0.94953895  0.30892254    -0.72800
O3174       O  0.00294758  0.90645437  0.25590148    -0.78500
O3175       O  0.98199407  0.50586521  0.29323805    -0.76700
O3176       O  0.96447262  0.96600027  0.23465705    -1.12800
O3177       O  0.97857003  0.54102630  0.22887419    -0.72000
C3178       C  0.94691626  0.54867583  0.21700332     0.98700
C3179       C  0.93014168  0.90234646  0.18688335     0.95100
Al3180     Al  0.95534561  0.92664474  0.26191473     1.55600
O3181       O  0.97718547  0.49900510  0.16675053    -0.76600
C3182       C  0.98101632  0.48188496  0.31761465     0.99300
C3183       C  0.88258421  0.94356419  0.24951587     0.94200
O3184       O  0.88985782  0.95703980  0.21826590    -0.81900
C3185       C  0.67055751  0.82821073  0.50674192    -0.17400
C3186       C  0.65285592  0.86163705  0.01073449    -0.19600
C3187       C  0.67259276  0.89256895  0.02116107     0.21100
C3188       C  0.70975277  0.88931108  0.03026270    -0.02500
C3189       C  0.72748931  0.85587701  0.52630405    -0.05600
C3190       C  0.70805617  0.82548283  0.51323829     0.21300
C3191       C  0.76543729  0.85381313  0.53190181     0.19500
C3192       C  0.78468825  0.88411695  0.54459820    -0.17100
C3193       C  0.76670330  0.91696884  0.05011684    -0.19300
C3194       C  0.72971803  0.91995308  0.04146466     0.21000
C3195       C  0.71295310  0.95358969  0.04179420    -0.32300
C3196       C  0.67748065  0.95801190  0.02829744     0.01700
C3197       C  0.65645405  0.92699922  0.02102294    -0.23600
C3198       C  0.72724394  0.79420740  0.50342495    -0.28200
C3199       C  0.76533017  0.79429791  0.50449127     0.07400
C3200       C  0.78400212  0.82288049  0.52069221    -0.26900
H3201       H  0.65536977  0.80507739  0.49671048     0.12100
H3202       H  0.62421014  0.86363428  0.00406567     0.13200
H3203       H  0.81387450  0.88290647  0.54835984     0.12300
H3204       H  0.78215155  0.94054283  0.05884517     0.11500
H3205       H  0.72783014  0.97639281  0.05253070     0.16900
H3206       H  0.62780132  0.92962278  0.01519428     0.12800
H3207       H  0.71321629  0.77171450  0.49042168     0.15700
H3208       H  0.81318111  0.82270038  0.52009392     0.15500
C3209       C  0.63898449  0.02209220  0.21752575    -0.17400
C3210       C  0.63628973  0.00318517  0.25027073    -0.19600
C3211       C  0.63276987  0.96525230  0.24988378     0.21100
C3212       C  0.63651977  0.94579532  0.21691713    -0.02500
C3213       C  0.64045362  0.96463876  0.18439317    -0.05600
C3214       C  0.63924629  0.00298920  0.18443637     0.21300
C3215       C  0.64268954  0.94501642  0.15158056     0.19500
C3216       C  0.64247021  0.90688835  0.15132623    -0.17100
C3217       C  0.63629313  0.88824437  0.18339889    -0.19300
C3218       C  0.63190090  0.90773851  0.21583974     0.21000
C3219       C  0.61835075  0.89059180  0.24611424    -0.32300
C3220       C  0.61179033  0.91011245  0.27770123     0.01700
C3221       C  0.62146616  0.94673297  0.28080034    -0.23600
C3222       C  0.63684247  0.02130443  0.15137998    -0.28200
C3223       C  0.63792181  0.00167349  0.11844975     0.07400
C3224       C  0.64320687  0.96370673  0.11925870    -0.26900
H3225       H  0.63967234  0.55157112  0.21800279     0.12100
H3226       H  0.63455084  0.01823067  0.27560338     0.13200
H3227       H  0.64456345  0.89167681  0.12608197     0.12300
H3228       H  0.63326296  0.85890156  0.18260339     0.11500
H3229       H  0.60807700  0.86349357  0.24369159     0.16900
H3230       H  0.61546214  0.96148218  0.30568806     0.12800
H3231       H  0.63408095  0.55067548  0.15151200     0.15700
H3232       H  0.64648895  0.94794887  0.09465097     0.15500
C3233       C  0.79044257  0.61300792  0.16467002    -0.17400
C3234       C  0.76153358  0.61353648  0.14073452    -0.19600
C3235       C  0.76102419  0.58909894  0.11153547     0.21100
C3236       C  0.79019331  0.56534261  0.10497467    -0.02500
C3237       C  0.81909944  0.56467638  0.12933434    -0.05600
C3238       C  0.81797231  0.58728018  0.16025717     0.21300
C3239       C  0.84996416  0.54313655  0.12192223     0.19500
C3240       C  0.85017702  0.52035614  0.09127488    -0.17100
C3241       C  0.82042521  0.51986650  0.06751090    -0.19300
C3242       C  0.79030799  0.54245874  0.07421050     0.21000
C3243       C  0.75928280  0.54108809  0.05227248    -0.32300
C3244       C  0.72782162  0.56083448  0.06249751     0.01700
C3245       C  0.73095278  0.58724908  0.08974182    -0.23600
C3246       C  0.84672967  0.58721016  0.18397328    -0.28200
C3247       C  0.87953458  0.57257007  0.17262399     0.07400
C3248       C  0.88102371  0.54807926  0.14334113    -0.26900
H3249       H  0.79200642  0.63334949  0.18595433     0.12100
H3250       H  0.73974257  0.63304194  0.14485727     0.13200
H3251       H  0.87315446  0.50294573  0.08590727     0.12300
H3252       H  0.82081274  0.00169030  0.04405053     0.11500
H3253       H  0.75910503  0.02232438  0.02941299     0.16900
H3254       H  0.70869894  0.60439468  0.09689594     0.12800
H3255       H  0.84699709  0.60679623  0.20611085     0.15700
H3256       H  0.90691307  0.53679702  0.13481507     0.15500
C3257       C  0.70783376  0.52188958  0.34046367    -0.17400
C3258       C  0.73754357  0.52134818  0.31717403    -0.19600
C3259       C  0.77124584  0.50820156  0.32939845     0.21100
C3260       C  0.77574804  0.99689587  0.36549329    -0.02500
C3261       C  0.74568872  0.99642141  0.38863884    -0.05600
C3262       C  0.71143197  0.00831975  0.37577190     0.21300
C3263       C  0.74919360  0.98111863  0.42350769     0.19500
C3264       C  0.78329147  0.96957420  0.43614393    -0.17100
C3265       C  0.81363096  0.97176579  0.41357484    -0.19300
C3266       C  0.80983924  0.98451901  0.37789104     0.21000
C3267       C  0.83966471  0.98561024  0.35458774    -0.32300
C3268       C  0.83586583  0.49758463  0.31833463     0.01700
C3269       C  0.80050265  0.50642943  0.30594159    -0.23600
C3270       C  0.68072128  0.00237616  0.39677526    -0.28200
C3271       C  0.68379742  0.98209210  0.42853733     0.07400
C3272       C  0.71790849  0.97381290  0.44321445    -0.26900
H3273       H  0.68170495  0.53107469  0.33031928     0.12100
H3274       H  0.73407229  0.53077124  0.28949952     0.13200
H3275       H  0.78624617  0.95791074  0.46300119     0.12300
H3276       H  0.83975071  0.96240594  0.42357946     0.11500
H3277       H  0.86578126  0.97838570  0.36571462     0.16900
H3278       H  0.79505358  0.51381518  0.27824349     0.12800
H3279       H  0.65393640  0.00791928  0.38567324     0.15700
H3280       H  0.71969373  0.95710692  0.46723260     0.15500
C3281       C  0.80311168  0.70114557  0.32490564    -0.17400
C3282       C  0.81603629  0.66667103  0.33350329    -0.19600
C3283       C  0.80776535  0.63738111  0.31044358     0.21100
C3284       C  0.78064959  0.64075525  0.28369345    -0.02500
C3285       C  0.76677147  0.67524521  0.27580265    -0.05600
C3286       C  0.78105142  0.70576238  0.29429312     0.21300
C3287       C  0.74463760  0.67969957  0.24484531     0.19500
C3288       C  0.73019594  0.64897349  0.22723033    -0.17100
C3289       C  0.74414864  0.61444765  0.23526792    -0.19300
C3290       C  0.77307123  0.61145041  0.25998298     0.21000
C3291       C  0.79896433  0.58360006  0.25661714    -0.32300
C3292       C  0.83103732  0.58541579  0.27751349     0.01700
C3293       C  0.83114001  0.60795172  0.30866329    -0.23600
C3294       C  0.77755000  0.73987381  0.27882599    -0.28200
C3295       C  0.75876178  0.74407479  0.24622762     0.07400
C3296       C  0.74155144  0.71424407  0.22963144    -0.26900
H3297       H  0.81335877  0.72447736  0.33964991     0.12100
H3298       H  0.83628646  0.66400906  0.35479069     0.13200
H3299       H  0.71145501  0.65197309  0.20467830     0.12300
H3300       H  0.73631186  0.59147791  0.21843336     0.11500
H3301       H  0.79631297  0.56369132  0.23498554     0.16900
H3302       H  0.85277811  0.60645446  0.32846104     0.12800
H3303       H  0.79249724  0.76268169  0.29004862     0.15700
H3304       H  0.72845807  0.71749631  0.20349841     0.15500
C3305       C  0.88915870  0.56379988  0.44569421    -0.17400
C3306       C  0.89406512  0.58120011  0.47908987    -0.19600
C3307       C  0.91241672  0.61450269  0.48070323     0.21100
C3308       C  0.92277671  0.63210338  0.44824056    -0.02500
C3309       C  0.91735389  0.61481292  0.41464079    -0.05600
C3310       C  0.90228346  0.57977862  0.41371703     0.21300
C3311       C  0.92950875  0.63139443  0.38236267     0.19500
C3312       C  0.94375986  0.66675866  0.38371122    -0.17100
C3313       C  0.95051532  0.68339275  0.41728991    -0.19300
C3314       C  0.94206744  0.66510005  0.44954519     0.21000
C3315       C  0.95576472  0.67701635  0.98278725    -0.32300
C3316       C  0.94736775  0.65844413  0.01477741     0.01700
C3317       C  0.92383294  0.62868529  0.01403828    -0.23600
C3318       C  0.90150255  0.56070647  0.38108204    -0.28200
C3319       C  0.91594728  0.57552887  0.34882396     0.07400
C3320       C  0.92908614  0.61155846  0.34976041    -0.26900
H3321       H  0.87657967  0.53715339  0.44505804     0.12100
H3322       H  0.88549663  0.56763865  0.50372410     0.13200
H3323       H  0.95235329  0.68029219  0.35908878     0.12300
H3324       H  0.96444390  0.70935027  0.41806701     0.11500
H3325       H  0.97546482  0.69871652  0.98341348     0.16900
H3326       H  0.41829595  0.61416234  0.03901043     0.12800
H3327       H  0.88873211  0.53443176  0.38133956     0.15700
H3328       H  0.94010752  0.62389379  0.32550424     0.15500
C3329       C  0.90853397  0.88910837  0.42978342    -0.17400
C3330       C  0.90584107  0.90580023  0.39607321    -0.19600
C3331       C  0.89262021  0.88607149  0.36623411     0.21100
C3332       C  0.88522928  0.84858144  0.36922328    -0.02500
C3333       C  0.88839004  0.83173584  0.40298524    -0.05600
C3334       C  0.89846379  0.85256174  0.43354181     0.21300
C3335       C  0.87979480  0.79457635  0.40651417     0.19500
C3336       C  0.87000268  0.77413932  0.37574162    -0.17100
C3337       C  0.86524719  0.79133309  0.34230345    -0.19300
C3338       C  0.87151062  0.82879424  0.33926209     0.21000
C3339       C  0.86096192  0.84765853  0.30819178    -0.32300
C3340       C  0.86330928  0.88562395  0.30782856     0.01700
C3341       C  0.88249864  0.90401598  0.33486078    -0.23600
C3342       C  0.89728040  0.83686183  0.46758464    -0.28200
C3343       C  0.88641158  0.80039602  0.47192236     0.07400
C3344       C  0.88021072  0.77887822  0.44092170    -0.26900
H3345       H  0.91701932  0.90510310  0.45312804     0.12100
H3346       H  0.91191642  0.93455789  0.39385888     0.13200
H3347       H  0.86435853  0.74532043  0.37795457     0.12300
H3348       H  0.85543240  0.77573193  0.31925035     0.11500
H3349       H  0.84657643  0.83369476  0.28649379     0.16900
H3350       H  0.88529694  0.93304792  0.33342836     0.12800
H3351       H  0.90591720  0.85315562  0.49058626     0.15700
H3352       H  0.87597458  0.74998472  0.44345075     0.15500
C3353       C  0.60508099  0.72878308  0.53399137    -0.17400
C3354       C  0.57131808  0.73263064  0.05093362    -0.19600
C3355       C  0.54191663  0.74754572  0.53174463     0.21100
C3356       C  0.54738541  0.76183545  0.49671828    -0.02500
C3357       C  0.58155023  0.75924508  0.48039918    -0.05600
C3358       C  0.61003072  0.74073515  0.49820198     0.21300
C3359       C  0.58600649  0.77162128  0.44459323     0.19500
C3360       C  0.55744424  0.78883860  0.42625249    -0.17100
C3361       C  0.52349126  0.79126156  0.44235167    -0.19300
C3362       C  0.51808833  0.77647088  0.47686075     0.25400
C3363       C  0.48339310  0.77410709  0.49077191    -0.32300
C3364       C  0.97708124  0.75715223  0.52430179     0.01700
C3365       C  0.50678984  0.74678267  0.04595973    -0.23600
C3366       C  0.64079576  0.73058441  0.47812957    -0.28200
C3367       C  0.64172748  0.73735504  0.44062435     0.07400
C3368       C  0.61691655  0.76196627  0.42569338    -0.26900
H3369       H  0.62643375  0.71446863  0.04802265     0.12100
H3370       H  0.56765662  0.72188595  0.07805571     0.13200
H3371       H  0.56057855  0.79760513  0.39840008     0.12300
H3372       H  0.50106341  0.80277831  0.42704046     0.11500
H3373       H  0.96119585  0.78522063  0.47495803     0.16900
H3374       H  0.00262760  0.73777170  0.07344815     0.12800
H3375       H  0.66105917  0.71279520  0.49002995     0.15700
H3376       H  0.61783179  0.76919895  0.39756258     0.15500
C3377       C  0.41901718  0.94302956  0.05673155    -0.17400
C3378       C  0.43898706  0.97525978  0.05820602    -0.19600
C3379       C  0.47595684  0.97423791  0.06700759     0.21100
C3380       C  0.49401053  0.94049548  0.07040838    -0.02500
C3381       C  0.97427243  0.90820149  0.06772369    -0.05600
C3382       C  0.93634846  0.90950877  0.06263291     0.21300
C3383       C  0.99225852  0.87473599  0.07204528     0.19500
C3384       C  0.02993676  0.87351054  0.07792506    -0.17100
C3385       C  0.04927526  0.90567749  0.08238247    -0.19300
C3386       C  0.03114445  0.93908345  0.07983769     0.21000
C3387       C  0.54826714  0.97080473  0.09058738    -0.32300
C3388       C  0.52930301  0.50362465  0.09056381     0.01700
C3389       C  0.49427336  0.50612103  0.07622876    -0.23600
C3390       C  0.91638598  0.87735765  0.06394433    -0.28200
C3391       C  0.93396232  0.84350221  0.06827822     0.07400
C3392       C  0.97230274  0.84292490  0.07107866    -0.26900
H3393       H  0.39000968  0.94432571  0.05167486     0.12100
H3394       H  0.42542239  0.00109109  0.05411732     0.13200
H3395       H  0.04405935  0.84775372  0.08084179     0.12300
H3396       H  0.07795851  0.90445480  0.08914153     0.11500
H3397       H  0.57447713  0.96940965  0.10344015     0.16900
H3398       H  0.47999127  0.53196767  0.07717183     0.12800
H3399       H  0.88723437  0.87920627  0.06114542     0.15700
H3400       H  0.98747022  0.81782366  0.07234182     0.15500
C3401       C  0.98523046  0.80941434  0.29339712    -0.17400
C3402       C  0.95184620  0.81091586  0.27543405    -0.19600
C3403       C  0.95041194  0.80836896  0.23747130     0.21100
C3404       C  0.98258120  0.80201270  0.21750135    -0.02500
C3405       C  0.51600143  0.80106668  0.23539679    -0.05600
C3406       C  0.51744709  0.80546572  0.27343216     0.21300
C3407       C  0.54809337  0.79737538  0.21496638     0.19500
C3408       C  0.54676335  0.79307406  0.17714159    -0.17100
C3409       C  0.51358756  0.79454456  0.15927030    -0.19300
C3410       C  0.98174177  0.80018792  0.17923832     0.21000
C3411       C  0.94994659  0.80890442  0.16148146    -0.32300
C3412       C  0.91956790  0.81962299  0.18094371     0.01700
C3413       C  0.91841042  0.81632376  0.21872577    -0.23600
C3414       C  0.55113304  0.80602692  0.29073633    -0.28200
C3415       C  0.58337403  0.80303400  0.27046627     0.07400
C3416       C  0.58120536  0.79834525  0.23252014    -0.26900
H3417       H  0.98595197  0.81249390  0.32270401     0.12100
H3418       H  0.92745025  0.81560324  0.29102638     0.13200
H3419       H  0.57142132  0.78981007  0.16134014     0.12300
H3420       H  0.51300803  0.79294211  0.12985403     0.11500
H3421       H  0.95042056  0.81388653  0.13289698     0.16900
H3422       H  0.89440454  0.82527317  0.23332663     0.12800
H3423       H  0.55203994  0.80789254  0.32002016     0.15700
H3424       H  0.60524337  0.79457383  0.21613414     0.15500
C3425       C  0.55253866  0.67410206  0.38000249    -0.17400
C3426       C  0.52866500  0.64520883  0.38257452    -0.19600
C3427       C  0.53022962  0.61685334  0.35722879     0.21100
C3428       C  0.55701245  0.61646549  0.32992270    -0.02500
C3429       C  0.58146125  0.64526775  0.32762966    -0.05600
C3430       C  0.57896511  0.67402967  0.35269662     0.21300
C3431       C  0.60919050  0.64468135  0.30127583     0.19500
C3432       C  0.61161574  0.61538153  0.27678370    -0.17100
C3433       C  0.58773337  0.58605806  0.27979470    -0.19300
C3434       C  0.56141156  0.58581804  0.30721273     0.21000
C3435       C  0.54248430  0.55413448  0.31549012    -0.32300
C3436       C  0.51764550  0.55430774  0.34425419     0.01700
C3437       C  0.50857074  0.58667290  0.36178405    -0.23600
C3438       C  0.60268700  0.70269757  0.35004620    -0.28200
C3439       C  0.62842190  0.70459009  0.32213284     0.07400
C3440       C  0.63319246  0.67396681  0.29928369    -0.26900
H3441       H  0.55103755  0.69591665  0.39990818     0.12100
H3442       H  0.51043528  0.64397718  0.40551811     0.13200
H3443       H  0.63223712  0.61490284  0.25578343     0.12300
H3444       H  0.59010388  0.56329444  0.26127870     0.11500
H3445       H  0.55073417  0.52858422  0.30325851     0.16900
H3446       H  0.49011528  0.58566311  0.38469390     0.12800
H3447       H  0.59903992  0.72451817  0.36870487     0.15700
H3448       H  0.65376099  0.67332103  0.27840465     0.15500
C3449       C  0.69863194  0.78453417  0.12979745    -0.17400
C3450       C  0.70316290  0.76778060  0.09589282    -0.19600
C3451       C  0.69048508  0.73224253  0.08987558     0.21100
C3452       C  0.67098291  0.71441105  0.11745383    -0.02500
C3453       C  0.66680578  0.73096784  0.15152148    -0.05600
C3454       C  0.68177075  0.76569339  0.15817263     0.21300
C3455       C  0.64976887  0.71166480  0.17968272     0.19500
C3456       C  0.63526849  0.67703810  0.17338561    -0.17100
C3457       C  0.64028817  0.66031707  0.13987836    -0.19300
C3458       C  0.65878329  0.67848868  0.11223964     0.21000
C3459       C  0.66913441  0.65955978  0.08136588    -0.32300
C3460       C  0.69330280  0.67502192  0.05662349     0.01700
C3461       C  0.70045242  0.71253802  0.05873278    -0.23600
C3462       C  0.68167370  0.77967100  0.19362438    -0.28200
C3463       C  0.66884787  0.75820021  0.22236020     0.07400
C3464       C  0.64987286  0.72605438  0.21442287    -0.26900
H3465       H  0.71015515  0.81127921  0.13441228     0.12100
H3466       H  0.71868508  0.78169803  0.07536603     0.13200
H3467       H  0.62232170  0.66196059  0.19503917     0.12300
H3468       H  0.63216814  0.63227678  0.13635300     0.11500
H3469       H  0.66195453  0.63132507  0.07987613     0.16900
H3470       H  0.71814337  0.72475787  0.03874183     0.12800
H3471       H  0.69244128  0.80649314  0.19889544     0.15700
H3472       H  0.63550290  0.71179094  0.23549538     0.15500
N3473       N  0.71797687  0.65194780  0.53698277    -0.03100
C3474       C  0.75478494  0.65119585  0.54314359    -0.00500
C3475       C  0.77019633  0.62687633  0.51860980    -0.23400
C3476       C  0.74230650  0.61184217  0.49789960    -0.23600
C3477       C  0.70997093  0.62628588  0.51068544    -0.00600
H3478       H  0.79872908  0.61988229  0.01664246     0.13200
H3479       H  0.74522010  0.59050209  0.97772612     0.13200
N3480       N  0.51291089  0.52227653  0.86484718    -0.03100
C3481       C  0.52543372  0.51933141  0.89954842    -0.00500
C3482       C  0.51498050  0.98557352  0.91247915    -0.23400
C3483       C  0.99645444  0.96767725  0.88449317    -0.23600
C3484       C  0.99517217  0.49111503  0.85515300    -0.00600
H3485       H  0.52055928  0.97482585  0.93922329     0.13200
H3486       H  0.98574825  0.94029854  0.88543451     0.13200
N3487       N  0.89627399  0.84472248  0.66373525    -0.03100
C3488       C  0.90170228  0.88129601  0.66480218    -0.00500
C3489       C  0.87576520  0.89716674  0.64240580    -0.23400
C3490       C  0.85519799  0.86918157  0.62690560    -0.23600
C3491       C  0.86976003  0.83673139  0.63906540    -0.00600
H3492       H  0.87220639  0.92598870  0.63758785     0.13200
H3493       H  0.83320490  0.87228768  0.60771497     0.13200
C3494       C  0.67019495  0.77045082  0.76053674     0.03500
C3495       C  0.67180333  0.74345657  0.78733793    -0.12600
C3496       C  0.64288089  0.74080817  0.81189196     0.01000
C3497       C  0.61908703  0.77059522  0.81522320    -0.11100
C3498       C  0.61883860  0.79714233  0.78846497     0.03500
C3499       C  0.65020325  0.80159688  0.76768932    -0.10600
H3500       H  0.68914729  0.72016862  0.78278427     0.09100
H3501       H  0.59499665  0.76820939  0.83153782     0.06700
H3502       H  0.65068484  0.82256419  0.74728764     0.06500
O3503       O  0.67422599  0.78267020  0.87872277    -0.81400
C3504       C  0.77995319  0.88297326  0.82191548     0.98000
O3505       O  0.78392124  0.84842992  0.82557503    -0.70500
O3506       O  0.77500851  0.81535831  0.89374605    -0.74100
Al3507     Al  0.75233276  0.80891420  0.84753178     1.49000
C3508       C  0.76003149  0.80162929  0.92148409     0.93200
O3509       O  0.69505503  0.87491148  0.91845917    -0.80300
O3510       O  0.65792384  0.86258075  0.81829256    -0.73900
Al3511     Al  0.68654685  0.82910918  0.89603311     1.90100
O3512       O  0.68512720  0.90820351  0.87017536    -0.72900
O3513       O  0.72383736  0.85367098  0.78352471    -0.72800
O3514       O  0.75287804  0.89793187  0.83719527    -0.78500
O3515       O  0.73410216  0.79778826  0.80075486    -0.76700
O3516       O  0.71496745  0.83857384  0.85793145    -1.12800
O3517       O  0.72859071  0.76304711  0.86581800    -0.72000
C3518       C  0.69645863  0.75669732  0.87741942     0.98700
C3519       C  0.68103643  0.90293626  0.90435105     0.95100
Al3520     Al  0.70587008  0.87732731  0.82980995     1.55600
O3521       O  0.72591775  0.80662114  0.92616984    -0.76600
C3522       C  0.73437490  0.82121111  0.77590026     0.99300
C3523       C  0.63300369  0.86067251  0.84183125     0.94200
O3524       O  0.64071405  0.84838247  0.87340468    -0.81900
N3525       N  0.54133014  0.53112653  0.61446814    -0.03100
C3526       C  0.53375463  0.53126060  0.65067728    -0.00500
C3527       C  0.54837181  0.56293014  0.66519167    -0.23400
C3528       C  0.56461491  0.58207874  0.63682346    -0.23600
C3529       C  0.56084773  0.56134442  0.60550762    -0.00600
H3530       H  0.54635183  0.57193490  0.69317177     0.13200
H3531       H  0.57683329  0.60860709  0.63897382     0.13200
N3532       N  0.65947136  0.71182761  0.91698541    -0.03100
C3533       C  0.65160167  0.67529614  0.91550798    -0.00500
C3534       C  0.67371681  0.65964259  0.88913116    -0.23400
C3535       C  0.69461001  0.68701014  0.87376844    -0.23600
C3536       C  0.68440602  0.71936742  0.89016435    -0.00600
H3537       H  0.67421366  0.63121417  0.88131189     0.13200
H3538       H  0.71342252  0.68383554  0.85138020     0.13200
N3539       N  0.83765518  0.90560621  0.78709606    -0.03100
C3540       C  0.80109561  0.90480352  0.79334642    -0.00500
C3541       C  0.78479318  0.92789232  0.76834881    -0.23400
C3542       C  0.81217116  0.94325736  0.74719114    -0.23600
C3543       C  0.84499248  0.93032240  0.76032445    -0.00600
H3544       H  0.75597015  0.93334692  0.76586196     0.13200
H3545       H  0.80838702  0.96315665  0.72594483     0.13200
C3546       C  0.91388471  0.80854335  0.56362237     0.03500
C3547       C  0.88555294  0.80761933  0.53829433    -0.12600
C3548       C  0.88906411  0.78405980  0.00840453     0.01000
C3549       C  0.91185959  0.75379417  0.01163107    -0.11100
C3550       C  0.93945080  0.75557154  0.03774722     0.03500
C3551       C  0.93314770  0.77614820  0.56868088    -0.10600
H3552       H  0.86897323  0.83145389  0.53480377     0.09100
H3553       H  0.91695782  0.73741903  0.98772574     0.06700
H3554       H  0.95312159  0.77428300  0.59004064     0.06500
O3555       O  0.64750015  0.61284934  0.52309195    -0.81400
C3556       C  0.54655942  0.54798497  0.92142405     0.98000
O3557       O  0.58041864  0.55426674  0.91572729    -0.70500
O3558       O  0.61071008  0.62443062  0.92350144    -0.74100
Al3559     Al  0.61997614  0.57837155  0.94574243     1.49000
C3560       C  0.62412722  0.65297801  0.93768877     0.93200
O3561       O  0.55222549  0.64623216  0.50475204    -0.80300
O3562       O  0.57175552  0.54747030  0.54267147    -0.73900
Al3563     Al  0.59968925  0.62679714  0.51208612     1.90100
O3564       O  0.52242157  0.59605127  0.51627951    -0.72900
O3565       O  0.57949632  0.01256972  0.47765133    -0.72800
O3566       O  0.53171212  0.56214319  0.94911986    -0.78500
O3567       O  0.63376236  0.53183871  0.96234698    -0.76700
O3568       O  0.59141117  0.58750006  0.48430531    -1.12800
O3569       O  0.66568823  0.59904111  0.96833536    -0.72000
C3570       C  0.67264737  0.61199651  0.50001281     0.98700
C3571       C  0.52555320  0.63056407  0.51960922     0.95100
Al3572     Al  0.55457069  0.55736488  0.49524280     1.55600
O3573       O  0.61951247  0.65794447  0.47182169    -0.76600
C3574       C  0.61133026  0.00604504  0.46540683     0.99300
C3575       C  0.57335735  0.57134768  0.56739111     0.94200
O3576       O  0.58338920  0.60360009  0.55894352    -0.81900
N3577       N  0.46964905  0.66378574  0.54589188    -0.03100
C3578       C  0.50417071  0.65095525  0.54837307    -0.00500
C3579       C  0.51699367  0.65803435  0.58314948    -0.23400
C3580       C  0.48922770  0.67516785  0.60227648    -0.23600
C3581       C  0.96022338  0.67896743  0.57854613    -0.00600
H3582       H  0.54352614  0.65120576  0.59381996     0.13200
H3583       H  0.49024647  0.68394945  0.63037599     0.13200
N3584       N  0.76178520  0.77757918  0.72738656    -0.03100
C3585       C  0.77949927  0.78128618  0.69516118    -0.00500
C3586       C  0.77904030  0.81783926  0.68599049    -0.23400
C3587       C  0.76114207  0.83663951  0.71353437    -0.23600
C3588       C  0.75074277  0.81136448  0.73922457    -0.00600
H3589       H  0.79114095  0.82998821  0.66225301     0.13200
H3590       H  0.75736187  0.86581386  0.71515458     0.13200
N3591       N  0.65439431  0.95907873  0.93726465    -0.03100
C3592       C  0.65269068  0.92392423  0.92595201    -0.00500
C3593       C  0.61864065  0.91048754  0.93466866    -0.23400
C3594       C  0.59916088  0.93867600  0.95091241    -0.23600
C3595       C  0.62194508  0.96861739  0.95239652    -0.00600
H3596       H  0.60850541  0.88344716  0.92895985     0.13200
H3597       H  0.57138132  0.93735038  0.96035728     0.13200
C3598       C  0.90984706  0.55613342  0.81359143     0.03500
C3599       C  0.89671502  0.57691922  0.78431997    -0.12600
C3600       C  0.86468744  0.56488770  0.76764112     0.01000
C3601       C  0.86097800  0.52760646  0.76408164    -0.11100
C3602       C  0.86824278  0.50843457  0.79604114     0.03500
C3603       C  0.89998389  0.51904731  0.81459436    -0.10600
H3604       H  0.90136236  0.60596241  0.78385421     0.09100
H3605       H  0.84078853  0.51764163  0.74524491     0.06700
H3606       H  0.91022418  0.50240597  0.83642556     0.06500
O3607       O  0.81903421  0.75645189  0.55079445    -0.81400
C3608       C  0.88103745  0.65264456  0.65214322     0.98000
O3609       O  0.87444361  0.64669902  0.61826438    -0.70500
O3610       O  0.80488355  0.65643562  0.58581217    -0.74100
Al3611     Al  0.85155556  0.67761962  0.57841539     1.49000
C3612       C  0.77710167  0.67169822  0.57201724     0.93200
O3613       O  0.78353738  0.73805492  0.64579025    -0.80300
O3614       O  0.88304458  0.77382977  0.62838934    -0.73900
Al3615     Al  0.80406777  0.74510747  0.59846118     1.90100
O3616       O  0.83369020  0.74806891  0.67647886    -0.72900
O3617       O  0.91738382  0.70779508  0.62017316    -0.72800
O3618       O  0.86678800  0.68037769  0.66694152    -0.78500
O3619       O  0.89830900  0.69317924  0.56561335    -0.76700
O3620       O  0.84266852  0.71632404  0.60722452    -1.12800
O3621       O  0.83268755  0.70103079  0.53300667    -0.72000
C3622       C  0.82070297  0.73293362  0.52574620     0.98700
C3623       C  0.79926175  0.75215731  0.67312665     0.95100
Al3624     Al  0.87247665  0.72648387  0.64468491     1.55600
O3625       O  0.77283602  0.70578095  0.57751251    -0.76600
C3626       C  0.92373661  0.69472438  0.58849493     0.99300
C3627       C  0.85953993  0.79885631  0.62646036     0.94200
O3628       O  0.82747681  0.79107916  0.61560210    -0.81900
N3629       N  0.90988730  0.59457340  0.68050650    -0.03100
C3630       C  0.90989719  0.63097393  0.67347985    -0.00500
C3631       C  0.93919276  0.64607513  0.69193131    -0.23400
C3632       C  0.95707485  0.61793029  0.71015521    -0.23600
C3633       C  0.93778872  0.58628255  0.70333701    -0.00600
H3634       H  0.94665030  0.67454062  0.69246084     0.13200
H3635       H  0.98100474  0.62057000  0.72711633     0.13200
N3636       N  0.58702311  0.89535720  0.80270792    -0.03100
C3637       C  0.55058511  0.90106939  0.80101511    -0.00500
C3638       C  0.53544100  0.88576499  0.83187187    -0.23400
C3639       C  0.56369145  0.87010546  0.85195777    -0.23600
C3640       C  0.59540599  0.87487792  0.83233322    -0.00600
H3641       H  0.00699925  0.88619937  0.83932045     0.13200
H3642       H  0.56101846  0.85628300  0.87761492     0.13200
N3643       N  0.78455976  0.77138020  0.98007028    -0.03100
C3644       C  0.78079803  0.77329100  0.94339219    -0.00500
C3645       C  0.79821197  0.74337347  0.92836270    -0.23400
C3646       C  0.81380589  0.72368711  0.95667200    -0.23600
C3647       C  0.80668739  0.74267506  0.98841822    -0.00600
H3648       H  0.79916191  0.73632492  0.89989120     0.13200
H3649       H  0.82984841  0.69908978  0.95402616     0.13200
C3650       C  0.66165299  0.99489232  0.52826326     0.03500
C3651       C  0.63268968  0.99970802  0.55184450    -0.12600
C3652       C  0.63969948  0.02026346  0.58300591     0.01000
C3653       C  0.66461611  0.54852129  0.58066179    -0.11100
C3654       C  0.69081579  0.54810804  0.55278195     0.03500
C3655       C  0.68573399  0.02394923  0.52352437    -0.10600
H3656       H  0.61278549  0.97821054  0.55350175     0.09100
H3657       H  0.66918278  0.56407128  0.60506442     0.06700
H3658       H  0.70649027  0.02139035  0.50292941     0.06500
O3659       O  0.92380766  0.52352201  0.71380200    -0.81400
C3660       C  0.02936573  0.92187822  0.77196617     0.98000
O3661       O  0.03280142  0.95638029  0.76874773    -0.70500
O3662       O  0.02547490  0.48993194  0.70081190    -0.74100
Al3663     Al  0.00149643  0.49547039  0.74664533     1.49000
C3664       C  0.01143529  0.50359091  0.67239841     0.93200
O3665       O  0.94411989  0.93061450  0.67321873    -0.80300
O3666       O  0.90774318  0.94102922  0.77258220    -0.73900
Al3667     Al  0.93631796  0.47648888  0.69629053     1.90100
O3668       O  0.93533367  0.89622222  0.72077905    -0.72900
O3669       O  0.97137875  0.94953891  0.80892232    -0.72800
O3670       O  0.00294809  0.90645444  0.75590127    -0.78500
O3671       O  0.98199430  0.50586538  0.79323755    -0.76700
O3672       O  0.96447311  0.96600043  0.73465697    -1.12800
O3673       O  0.97857040  0.54102609  0.72887346    -0.72000
C3674       C  0.94691663  0.54867548  0.71700247     0.98700
C3675       C  0.93014175  0.90234704  0.68688287     0.95100
Al3676     Al  0.95534605  0.92664485  0.76191447     1.55600
O3677       O  0.97718637  0.49900436  0.66675012    -0.76600
C3678       C  0.98101661  0.48188523  0.81761424     0.99300
C3679       C  0.88258460  0.94356473  0.74951592     0.94200
O3680       O  0.88985815  0.95704046  0.71826604    -0.81900
C3681       C  0.67055727  0.82821046  0.00674068    -0.17400
C3682       C  0.65285638  0.86163743  0.51073579    -0.19600
C3683       C  0.67259351  0.89256926  0.52116200     0.21100
C3684       C  0.70975356  0.88931119  0.53026338    -0.02500
C3685       C  0.72748873  0.85587698  0.02630349    -0.05600
C3686       C  0.70805585  0.82548273  0.01323753     0.21300
C3687       C  0.76543664  0.85381326  0.03190173     0.19500
C3688       C  0.78468736  0.88411720  0.04459826    -0.17100
C3689       C  0.76670442  0.91696870  0.55011686    -0.19300
C3690       C  0.72971909  0.91995313  0.54146500     0.21000
C3691       C  0.71295440  0.95358989  0.54179441    -0.32300
C3692       C  0.67748187  0.95801224  0.52829788     0.01700
C3693       C  0.65645506  0.92699963  0.52102367    -0.23600
C3694       C  0.72724384  0.79420729  0.00342458    -0.28200
C3695       C  0.76533005  0.79429792  0.00449141     0.07400
C3696       C  0.78400172  0.82288060  0.02069254    -0.26900
H3697       H  0.65536976  0.80507710  0.99670902     0.12100
H3698       H  0.62421056  0.86363482  0.50406723     0.13200
H3699       H  0.81387356  0.88290689  0.04836013     0.12300
H3700       H  0.78215288  0.94054262  0.55884495     0.11500
H3701       H  0.72783173  0.97639297  0.55253051     0.16900
H3702       H  0.62780233  0.92962332  0.51519507     0.12800
H3703       H  0.71321642  0.77171435  0.99042113     0.15700
H3704       H  0.81318072  0.82270059  0.02009477     0.15500
C3705       C  0.63898518  0.02209289  0.71752577    -0.17400
C3706       C  0.63629043  0.00318596  0.75027083    -0.19600
C3707       C  0.63277063  0.96525310  0.74988401     0.21100
C3708       C  0.63652081  0.94579600  0.71691746    -0.02500
C3709       C  0.64045430  0.96463935  0.68439339    -0.05600
C3710       C  0.63924685  0.00298977  0.68443645     0.21300
C3711       C  0.64268997  0.94501687  0.65158082     0.19500
C3712       C  0.64247124  0.90688879  0.65132671    -0.17100
C3713       C  0.63629495  0.88824484  0.68339956    -0.19300
C3714       C  0.63190257  0.90773911  0.71584032     0.21000
C3715       C  0.61835270  0.89059236  0.74611493    -0.32300
C3716       C  0.61179126  0.91011321  0.77770156     0.01700
C3717       C  0.62146660  0.94673386  0.78080054    -0.23600
C3718       C  0.63684289  0.02130491  0.65138003    -0.28200
C3719       C  0.63792193  0.00167389  0.61844980     0.07400
C3720       C  0.64320666  0.96370707  0.61925885    -0.26900
H3721       H  0.63967525  0.55157062  0.71800247     0.12100
H3722       H  0.63455148  0.01823151  0.77560342     0.13200
H3723       H  0.64456440  0.89167713  0.62608251     0.12300
H3724       H  0.63326532  0.85890200  0.68260427     0.11500
H3725       H  0.60807969  0.86349390  0.74369252     0.16900
H3726       H  0.61546211  0.96148317  0.80568808     0.12800
H3727       H  0.63408273  0.55067470  0.65151180     0.15700
H3728       H  0.64648842  0.94794908  0.59465114     0.15500
C3729       C  0.79044228  0.61300775  0.66466941    -0.17400
C3730       C  0.76153356  0.61353629  0.64073357    -0.19600
C3731       C  0.76102443  0.58909865  0.61153458     0.21100
C3732       C  0.79019343  0.56534201  0.60497438    -0.02500
C3733       C  0.81909922  0.56467573  0.62933445    -0.05600
C3734       C  0.81797197  0.58727986  0.66025706     0.21300
C3735       C  0.84996378  0.54313548  0.62192298     0.19500
C3736       C  0.85017666  0.52035446  0.59127608    -0.17100
C3737       C  0.82042523  0.51986494  0.56751165    -0.19300
C3738       C  0.79030828  0.54245777  0.57421046     0.21000
C3739       C  0.75928340  0.54108725  0.55227199    -0.32300
C3740       C  0.72782226  0.56083393  0.56249651     0.01700
C3741       C  0.73095332  0.58724883  0.58974052    -0.23600
C3742       C  0.84672924  0.58721006  0.68397332    -0.28200
C3743       C  0.87953414  0.57256972  0.67262433     0.07400
C3744       C  0.88102322  0.54807830  0.64334198    -0.26900
H3745       H  0.79200609  0.63334955  0.68595350     0.12100
H3746       H  0.73974258  0.63304189  0.64485597     0.13200
H3747       H  0.87315381  0.50294349  0.58590921     0.12300
H3748       H  0.82081293  0.00169038  0.54405353     0.11500
H3749       H  0.75910612  0.02232539  0.52941450     0.16900
H3750       H  0.70869940  0.60439449  0.59689425     0.12800
H3751       H  0.84699669  0.60679640  0.70611066     0.15700
H3752       H  0.90691255  0.53679576  0.63481623     0.15500
C3753       C  0.70783364  0.52189278  0.84046563    -0.17400
C3754       C  0.73754345  0.52135119  0.81717602    -0.19600
C3755       C  0.77124535  0.50820334  0.82940018     0.21100
C3756       C  0.77574807  0.99689700  0.86549375    -0.02500
C3757       C  0.74568857  0.99642229  0.88863910    -0.05600
C3758       C  0.71143182  0.00832044  0.87577198     0.21300
C3759       C  0.74919335  0.98111939  0.92350791     0.19500
C3760       C  0.78329123  0.96957530  0.93614438    -0.17100
C3761       C  0.81363085  0.97176706  0.91357547    -0.19300
C3762       C  0.80983925  0.98452020  0.87789162     0.21000
C3763       C  0.83966482  0.98561130  0.85458836    -0.32300
C3764       C  0.83586479  0.49758394  0.81833587     0.01700
C3765       C  0.80050188  0.50643005  0.80594307    -0.23600
C3766       C  0.68072101  0.00237645  0.89677508    -0.28200
C3767       C  0.68379714  0.98209220  0.92853705     0.07400
C3768       C  0.71790816  0.97381321  0.94321436    -0.26900
H3769       H  0.68170498  0.53107850  0.83032133     0.12100
H3770       H  0.73407240  0.53077477  0.78950167     0.13200
H3771       H  0.78624586  0.95791189  0.96300168     0.12300
H3772       H  0.83975057  0.96240733  0.92358020     0.11500
H3773       H  0.86578135  0.97838667  0.86571520     0.16900
H3774       H  0.79505291  0.51381586  0.77824497     0.12800
H3775       H  0.65393616  0.00791949  0.88567296     0.15700
H3776       H  0.71969338  0.95710717  0.96723249     0.15500
C3777       C  0.80311394  0.70114636  0.82490520    -0.17400
C3778       C  0.81603920  0.66667199  0.83350259    -0.19600
C3779       C  0.80776815  0.63738192  0.81044309     0.21100
C3780       C  0.78065196  0.64075577  0.78369341    -0.02500
C3781       C  0.76677343  0.67524558  0.77580269    -0.05600
C3782       C  0.78105327  0.70576293  0.79429297     0.21300
C3783       C  0.74463913  0.67969967  0.74484564     0.19500
C3784       C  0.73019744  0.64897343  0.72723097    -0.17100
C3785       C  0.74415031  0.61444769  0.73526868    -0.19300
C3786       C  0.77307317  0.61145066  0.75998341     0.21000
C3787       C  0.79896593  0.58359997  0.75661779    -0.32300
C3788       C  0.83103917  0.58541557  0.77751375     0.01700
C3789       C  0.83114268  0.60795240  0.80866293    -0.23600
C3790       C  0.77755129  0.73987431  0.77882586    -0.28200
C3791       C  0.75876274  0.74407504  0.74622767     0.07400
C3792       C  0.74155251  0.71424410  0.72963170    -0.26900
H3793       H  0.81336080  0.72447828  0.83964948     0.12100
H3794       H  0.83628962  0.66401024  0.85478973     0.13200
H3795       H  0.71145626  0.65197281  0.70467912     0.12300
H3796       H  0.73631337  0.59147779  0.71843438     0.11500
H3797       H  0.79631399  0.56369084  0.73498658     0.16900
H3798       H  0.85278092  0.60645529  0.82846050     0.12800
H3799       H  0.79249840  0.76268239  0.79004831     0.15700
H3800       H  0.72845885  0.71749615  0.70349881     0.15500
C3801       C  0.88916112  0.56379640  0.94569598    -0.17400
C3802       C  0.89406721  0.58119706  0.97909149    -0.19600
C3803       C  0.91241778  0.61450024  0.98070449     0.21100
C3804       C  0.92277726  0.63210086  0.94824162    -0.02500
C3805       C  0.91735487  0.61480990  0.91464205    -0.05600
C3806       C  0.90228529  0.57977524  0.91371859     0.21300
C3807       C  0.92950918  0.63139148  0.88236376     0.19500
C3808       C  0.94375958  0.66675600  0.88371196    -0.17100
C3809       C  0.95051469  0.68339057  0.91729042    -0.19300
C3810       C  0.94206707  0.66509811  0.94954588     0.21000
C3811       C  0.95576565  0.67701739  0.48278670    -0.32300
C3812       C  0.94736815  0.65844500  0.51477666     0.01700
C3813       C  0.92383238  0.62868694  0.51403719    -0.23600
C3814       C  0.90150445  0.56070291  0.88108365    -0.28200
C3815       C  0.91594824  0.57552565  0.84882525     0.07400
C3816       C  0.92908663  0.61155540  0.84976161    -0.26900
H3817       H  0.87658273  0.53714960  0.94506008     0.12100
H3818       H  0.88549921  0.56763555  0.00372588     0.13200
H3819       H  0.95235260  0.68028951  0.85908935     0.12300
H3820       H  0.96444271  0.70934842  0.91806724     0.11500
H3821       H  0.97546638  0.69871697  0.48341317     0.16900
H3822       H  0.41829504  0.61416388  0.53900918     0.12800
H3823       H  0.88873473  0.53442788  0.88134153     0.15700
H3824       H  0.94010775  0.62389094  0.82550542     0.15500
C3825       C  0.90853389  0.88910877  0.92978325    -0.17400
C3826       C  0.90584101  0.90580077  0.89607312    -0.19600
C3827       C  0.89262052  0.88607204  0.86623385     0.21100
C3828       C  0.88523001  0.84858189  0.86922277    -0.02500
C3829       C  0.88839072  0.83173616  0.90298466    -0.05600
C3830       C  0.89846404  0.85256203  0.93354141     0.21300
C3831       C  0.87979582  0.79457660  0.90651335     0.19500
C3832       C  0.87000414  0.77413958  0.87574064    -0.17100
C3833       C  0.86524863  0.79133346  0.84230253    -0.19300
C3834       C  0.87151174  0.82879467  0.83926136     0.21000
C3835       C  0.86096302  0.84765902  0.80819111    -0.32300
C3836       C  0.86330985  0.88562446  0.80782822     0.01700
C3837       C  0.88249884  0.90401660  0.83486062    -0.23600
C3838       C  0.89728058  0.83686195  0.96758417    -0.28200
C3839       C  0.88641203  0.80039605  0.97192165     0.07400
C3840       C  0.88021154  0.77887834  0.94092082    -0.26900
H3841       H  0.91701896  0.90510346  0.95312800     0.12100
H3842       H  0.91191610  0.93455850  0.89385895     0.13200
H3843       H  0.86436033  0.74532062  0.87795343     0.12300
H3844       H  0.85543405  0.77573231  0.81924932     0.11500
H3845       H  0.84657781  0.83369519  0.78649293     0.16900
H3846       H  0.88529665  0.93304861  0.83342842     0.12800
H3847       H  0.90591716  0.85315570  0.99058593     0.15700
H3848       H  0.87597554  0.74998482  0.94344967     0.15500
C3849       C  0.60508132  0.72878345  0.03399168    -0.17400
C3850       C  0.57131774  0.73263003  0.55093330    -0.19600
C3851       C  0.54191699  0.74754619  0.03174481     0.21100
C3852       C  0.54738585  0.76183584  0.99671844    -0.02500
C3853       C  0.58155068  0.75924528  0.98039937    -0.05600
C3854       C  0.61003108  0.74073528  0.99820221     0.21300
C3855       C  0.58600702  0.77162140  0.94459340     0.19500
C3856       C  0.55744486  0.78883878  0.92625262    -0.17100
C3857       C  0.52349187  0.79126189  0.94235175    -0.19300
C3858       C  0.51808885  0.77647128  0.97686084     0.25400
C3859       C  0.48339356  0.77410744  0.99077187    -0.32300
C3860       C  0.97708147  0.75715217  0.02430159     0.01700
C3861       C  0.50678958  0.74678244  0.54595977    -0.23600
C3862       C  0.64079609  0.73058436  0.97812980    -0.28200
C3863       C  0.64172797  0.73735508  0.94062458     0.07400
C3864       C  0.61691711  0.76196637  0.92569358    -0.26900
H3865       H  0.62643351  0.71446832  0.54802230     0.12100
H3866       H  0.56765632  0.72188520  0.57805534     0.13200
H3867       H  0.56057920  0.79760517  0.89840018     0.12300
H3868       H  0.50106408  0.80277862  0.92704047     0.11500
H3869       H  0.96119629  0.78522070  0.97495783     0.16900
H3870       H  0.00262751  0.73777153  0.57344820     0.12800
H3871       H  0.66105940  0.71279507  0.99003020     0.15700
H3872       H  0.61783247  0.76919928  0.89756283     0.15500
C3873       C  0.41901580  0.94303095  0.55673233    -0.17400
C3874       C  0.43898535  0.97526137  0.55820727    -0.19600
C3875       C  0.47595542  0.97423961  0.56700761     0.21100
C3876       C  0.49400967  0.94049726  0.57040636    -0.02500
C3877       C  0.97427187  0.90820313  0.56772124    -0.05600
C3878       C  0.93634766  0.90951017  0.56263204     0.21300
C3879       C  0.99225850  0.87473769  0.57204110     0.19500
C3880       C  0.02993699  0.87351243  0.57791929    -0.17100
C3881       C  0.04927529  0.90567945  0.58237713    -0.19300
C3882       C  0.03114395  0.93908529  0.57983441     0.21000
C3883       C  0.54826657  0.97080632  0.59058490    -0.32300
C3884       C  0.52930341  0.50362414  0.59056362     0.01700
C3885       C  0.49427336  0.50612035  0.57622955    -0.23600
C3886       C  0.91638551  0.87735884  0.56394380    -0.28200
C3887       C  0.93396239  0.84350355  0.56827664     0.07400
C3888       C  0.97230295  0.84292647  0.57107485    -0.26900
H3889       H  0.39000809  0.94432693  0.55167677     0.12100
H3890       H  0.42542025  0.00109271  0.55412002     0.13200
H3891       H  0.04405994  0.84775565  0.58083469     0.12300
H3892       H  0.07795883  0.90445682  0.58913508     0.11500
H3893       H  0.57447703  0.96941106  0.60343677     0.16900
H3894       H  0.47999118  0.53196693  0.57717308     0.12800
H3895       H  0.88723377  0.87920716  0.56114614     0.15700
H3896       H  0.98747064  0.81782528  0.57233693     0.15500
C3897       C  0.98523153  0.80941257  0.79339529    -0.17400
C3898       C  0.95184742  0.81091380  0.77543194    -0.19600
C3899       C  0.95041366  0.80836846  0.73746908     0.21100
C3900       C  0.98258335  0.80201414  0.71749921    -0.02500
C3901       C  0.51600335  0.80106814  0.73539495    -0.05600
C3902       C  0.51744846  0.80546557  0.77343052     0.21300
C3903       C  0.54809560  0.79737818  0.71496477     0.19500
C3904       C  0.54676609  0.79307883  0.67713972    -0.17100
C3905       C  0.51359048  0.79454980  0.65926808    -0.19300
C3906       C  0.98174437  0.80019108  0.67923607     0.21000
C3907       C  0.94994908  0.80890735  0.66147931    -0.32300
C3908       C  0.91956968  0.81962361  0.68094173     0.01700
C3909       C  0.91841202  0.81632275  0.71872361    -0.23600
C3910       C  0.55113418  0.80602647  0.79073517    -0.28200
C3911       C  0.58337547  0.80303424  0.77046547     0.07400
C3912       C  0.58120734  0.79834715  0.73251909    -0.26900
H3913       H  0.98595266  0.81249085  0.82270230     0.12100
H3914       H  0.92745107  0.81559963  0.79102422     0.13200
H3915       H  0.57142428  0.78981596  0.66133841     0.12300
H3916       H  0.51301127  0.79294892  0.62985172     0.11500
H3917       H  0.95042330  0.81389109  0.63289509     0.16900
H3918       H  0.89440561  0.82527053  0.73332462     0.12800
H3919       H  0.55204066  0.80789123  0.82001909     0.15700
H3920       H  0.60524557  0.79457639  0.71613327     0.15500
C3921       C  0.55254047  0.67410186  0.88000174    -0.17400
C3922       C  0.52866631  0.64520903  0.88257342    -0.19600
C3923       C  0.53023099  0.61685342  0.85722782     0.21100
C3924       C  0.55701413  0.61646516  0.82992205    -0.02500
C3925       C  0.58146329  0.64526712  0.82762925    -0.05600
C3926       C  0.57896723  0.67402901  0.85269621     0.21300
C3927       C  0.60919270  0.64468048  0.80127558     0.19500
C3928       C  0.61161788  0.61538060  0.77678351    -0.17100
C3929       C  0.58773522  0.58605732  0.77979438    -0.19300
C3930       C  0.56141315  0.58581760  0.80721219     0.21000
C3931       C  0.54248549  0.55413424  0.81548954    -0.32300
C3932       C  0.51764649  0.55430785  0.84425346     0.01700
C3933       C  0.50857190  0.58667317  0.86178309    -0.23600
C3934       C  0.60268938  0.70269670  0.85004605    -0.28200
C3935       C  0.62842409  0.70458920  0.82213257     0.07400
C3936       C  0.63319470  0.67396594  0.79928342    -0.26900
H3937       H  0.55103943  0.69591645  0.89990739     0.12100
H3938       H  0.51043625  0.64397778  0.90551675     0.13200
H3939       H  0.63223939  0.61490172  0.75578338     0.12300
H3940       H  0.59010569  0.56329363  0.76127845     0.11500
H3941       H  0.55073517  0.52858384  0.80325806     0.16900
H3942       H  0.49011649  0.58566359  0.88469294     0.12800
H3943       H  0.59904236  0.72451736  0.86870458     0.15700
H3944       H  0.65376309  0.67332027  0.77840426     0.15500
C3945       C  0.69863269  0.78453380  0.62979728    -0.17400
C3946       C  0.70316359  0.76778020  0.59589268    -0.19600
C3947       C  0.69048547  0.73224227  0.58987539     0.21100
C3948       C  0.67098324  0.71441087  0.61745362    -0.02500
C3949       C  0.66680626  0.73096764  0.65152131    -0.05600
C3950       C  0.68177139  0.76569313  0.65817243     0.21300
C3951       C  0.64976946  0.71166461  0.67968260     0.19500
C3952       C  0.63526894  0.67703797  0.67338548    -0.17100
C3953       C  0.64028840  0.66031697  0.63987817    -0.19300
C3954       C  0.65878348  0.67848855  0.61223941     0.21000
C3955       C  0.66913449  0.65955963  0.58136559    -0.32300
C3956       C  0.69330286  0.67502176  0.55662315     0.01700
C3957       C  0.70045257  0.71253782  0.55873249    -0.23600
C3958       C  0.68167455  0.77967075  0.69362415    -0.28200
C3959       C  0.66884885  0.75819998  0.72236003     0.07400
C3960       C  0.64987375  0.72605417  0.71442279    -0.26900
H3961       H  0.71015614  0.81127873  0.63441213     0.12100
H3962       H  0.71868596  0.78169749  0.57536595     0.13200
H3963       H  0.62232223  0.66196043  0.69503907     0.12300
H3964       H  0.63216834  0.63227671  0.63635278     0.11500
H3965       H  0.66195451  0.63132495  0.57987582     0.16900
H3966       H  0.71814353  0.72475764  0.53874154     0.12800
H3967       H  0.69244226  0.80649282  0.69889512     0.15700
H3968       H  0.63550400  0.71179065  0.73549543     0.15500
loop_ 
_geom_bond_atom_site_label_1 
_geom_bond_atom_site_label_2 
_geom_bond_distance 
_geom_bond_site_symmetry_2 
_ccdc_geom_bond_type 
N1            C5   1.380       .  A
N1            C2   1.372       .  A
N1          C484   1.434       .  S
C2            C3   1.388       .  A
C2          C140   1.537       .  S
C3            C4   1.390   1_554  A
C3          H502   1.082       .  S
C4            C5   1.383   1_556  A
C4          H503   1.082       .  S
C5           C98   1.521       .  S
H6          C499   1.082       .  S
H7          C500   1.082       .  S
N8            C9   1.361       .  A
N8         C1996   1.365   1_445  A
N8          C460   1.414       .  S
C9         C1002   1.386   1_545  A
C9           C84   1.534       .  S
C10        C1001   1.386       .  A
C10        C1995   1.396   1_455  A
C10          H13   1.081       .  S
C11        C1994   1.396       .  A
C11        C1004   1.386       .  A
C11          H14   1.082       .  S
C12        N1992   1.365   1_565  A
C12        C1003   1.386       .  A
C12         C206   1.512       .  S
N15          C19   1.362       .  A
N15          C16   1.359       .  A
N15         C436   1.409       .  S
C16          C17   1.388       .  A
C16         C203   1.532       .  S
C17          C18   1.397       .  A
C17          H20   1.082       .  S
C18          C19   1.382       .  A
C18          H21   1.079       .  S
C19         C155   1.513       .  S
C22          C23   1.403       .  A
C22          C27   1.383       .  A
C22         C487   1.473       .  S
C23          C24   1.401       .  A
C23          H28   1.079       .  S
C24          C25   1.405       .  A
C24         C463   1.485       .  S
C25          C26   1.389       .  A
C25          H29   1.075       .  S
C26          C27   1.396       .  A
C26         C439   1.478       .  S
C27          H30   1.078       .  S
O31          C46   1.256       .  A
O31         Al39   1.875       .  S
C32          C68   1.539       .  S
C32          O42   1.267       .  A
C32          O33   1.285       .  A
O33         Al35   2.033       .  S
O34          C36   1.268       .  A
O34         Al35   1.906       .  S
Al35         O43   1.889       .  S
Al35         O45   2.019       .  S
Al35         O44   1.793       .  S
C36         C172   1.522       .  S
C36          O49   1.279       .  A
O37          C47   1.264       .  A
O37         Al39   1.897       .  S
O38          C51   1.264       .  A
O38         Al48   1.893       .  S
Al39         O52   2.007       .  S
Al39         O49   2.001       .  S
Al39         O44   1.786       .  S
O40          C47   1.282       .  A
O40         Al48   2.014       .  S
O41          C50   1.283       .  A
O41         Al48   2.019       .  S
O42         Al48   1.908       .  S
O43          C50   1.259       .  A
O44         Al48   1.795       .  S
O45          C46   1.280       .  A
C46          C64   1.519       .  S
C47         C120   1.519       .  S
C50         C116   1.520       .  S
C51         C168   1.518       .  S
C51          O52   1.279       .  A
N53          C57   1.366       .  A
N53          C54   1.361       .  A
N53         C412   1.408       .  S
C54          C55   1.387       .  A
C54        C2176   1.536       .  S
C55          C56   1.397       .  A
C55          H58   1.082       .  S
C56          C57   1.385       .  A
C56          H59   1.077       .  S
C57         C103   1.523       .  S
N60          C64   1.378       .  A
N60          C61   1.375       .  A
N60         C391   1.433       .  S
C61          C62   1.389       .  A
C61          C88   1.540       .  S
C62          C63   1.390       .  A
C62          H65   1.082       .  S
C63          C64   1.382       .  A
C63          H66   1.082       .  S
N67          C71   1.371       .  A
N67          C68   1.365       .  A
N67         C364   1.418       .  S
C68          C69   1.388       .  A
C69          C70   1.396       .  A
C69          H72   1.082       .  S
C70          C71   1.383       .  A
C70          H73   1.081       .  S
C71         C207   1.521       .  S
C74          C75   1.397       .  A
C74          C79   1.397       .  A
C74         C415   1.492       .  S
C75         C572   1.402       .  A
C75          H80   1.074       .  S
C76          C77   1.396       .  A
C76         C571   1.402       .  A
C76         C367   1.476       .  S
C77          C78   1.398       .  A
C77          H81   1.080       .  S
C78         C575   1.383       .  A
C78         C388   1.472       .  S
C79         C574   1.383       .  A
C79          H82   1.077       .  S
O83          C98   1.257       .  A
O83         Al91   1.875       .  S
C84          O94   1.266       .  A
C84          O85   1.285       .  A
O85         Al87   2.028       .  S
O86          C88   1.270       .  A
O86         Al87   1.913       .  S
Al87         O95   1.886       .  S
Al87         O97   2.022       .  S
Al87        O592   1.797       .  S
C88         O597   1.279       .  A
O89          C99   1.265       .  A
O89         Al91   1.904       .  S
O90         C103   1.262       .  A
O90        Al100   1.891   1_554  S
Al91        O104   2.019       .  S
Al91        O101   2.015   1_554  S
Al91         O96   1.791   1_554  S
O92          C99   1.279       .  A
O92        Al100   2.000   1_554  S
O93         C102   1.277       .  A
O93       Al1092   1.988       .  S
O94        Al596   1.901       .  S
O95        C1590   1.262       .  A
O96        Al100   1.799       .  S
O96        Al583   1.797       .  S
O97         C594   1.282       .  A
C98         O593   1.282   1_554  A
C99         C106   1.514       .  S
Al100      O1085   1.988       .  S
Al100       O590   1.901       .  S
O101        C584   1.279       .  A
C102        C619   1.505       .  S
C102       O1583   1.263       .  A
C103        O104   1.282       .  A
N105        C106   1.356   1_655  A
N105       C2093   1.367       .  A
N105       C2324   1.420       .  S
C106        C107   1.386       .  A
C107        C108   1.389   1_455  A
C107        H110   1.081       .  S
C108       C2093   1.384       .  A
C108        H111   1.082       .  S
C109       N2089   1.367       .  A
C109       C2092   1.384       .  A
C109        C154   1.505       .  S
N112        C116   1.374       .  A
N112        C113   1.361       .  A
N112        C319   1.420       .  S
C113        C114   1.386       .  A
C113        C151   1.523       .  S
C114        C115   1.389       .  A
C114        H117   1.080       .  S
C115        C116   1.383       .  A
C115        H118   1.082       .  S
N119        C123   1.362       .  A
N119        C120   1.357       .  A
N119        C295   1.413       .  S
C120        C121   1.386       .  A
C121        C122   1.391       .  A
C121        H124   1.082       .  S
C122        C123   1.385       .  A
C122        H125   1.081       .  S
C123        C598   1.505       .  S
C126        C127   1.407       .  A
C126        C131   1.412       .  A
C126        C343   1.493       .  S
C127        C128   1.399       .  A
C127        H132   1.081       .  S
C128        C129   1.382       .  A
C128        C316   1.492       .  S
C129        C130   1.399       .  A
C129        H133   1.078       .  S
C130        C131   1.406       .  A
C130        C292   1.503   1_545  S
C131        H134   1.079       .  S
O135        C150   1.262       .  A
O135       Al143   1.888       .  S
C136        C158   1.541       .  S
C136        O146   1.266       .  A
C136        O137   1.287       .  A
O137       Al139   2.038       .  S
O138        C140   1.270       .  A
O138       Al139   1.907       .  S
Al139       O147   1.875       .  S
Al139       O149   2.004       .  S
Al139       O148   1.799       .  S
C140        O153   1.277       .  A
O141        C151   1.268       .  A
O141       Al143   1.918       .  S
O142        C155   1.263       .  A
O142       Al152   1.884       .  S
Al143       O156   1.997       .  S
Al143       O153   1.999       .  S
Al143       O148   1.798       .  S
O144        C151   1.281       .  A
O144       Al152   2.006       .  S
O145        C154   1.280       .  A
O145       Al152   2.002       .  S
O146       Al152   1.897       .  S
O147        C154   1.258       .  A
O148       Al152   1.798       .  S
O149        C150   1.280       .  A
C150        C671   1.510   1_554  S
C155        O156   1.277       .  A
N157        C161   1.360       .  A
N157        C158   1.363       .  A
N157        C271   1.409       .  S
C158        C159   1.388       .  A
C159        C160   1.397       .  A
C159        H162   1.082       .  S
C160        C161   1.385       .  A
C160        H163   1.082       .  S
C161        C202   1.509       .  S
N164        C168   1.362       .  A
N164        C165   1.357       .  A
N164        C244   1.407       .  S
C165        C166   1.388       .  A
C165       C2172   1.529       .  S
C166        C167   1.398       .  A
C166       H2153   1.082       .  S
C167        C168   1.385       .  A
C167        H170   1.079       .  S
H169       C2150   1.082       .  S
N171        C175   1.366       .  A
N171        C172   1.358       .  A
N171        C223   1.417       .  S
C172        C173   1.384       .  A
C173        C174   1.393       .  A
C173        H176   1.078       .  S
C174        C175   1.383       .  A
C174        H177   1.082       .  S
C175        C646   1.510       .  S
C178        C179   1.386       .  A
C178        C183   1.401       .  A
C178        C220   1.474       .  S
C179        C180   1.394       .  A
C179        H184   1.080       .  S
C180       C1173   1.387       .  A
C180        C247   1.477       .  S
C181        C182   1.409       .  A
C181       C1172   1.387       .  A
C181        H185   1.075       .  S
C182       C1175   1.399       .  A
C182        C268   1.483       .  S
C183       C1174   1.400       .  A
C183        H186   1.080       .  S
O187        C202   1.262       .  A
O187       Al195   1.897   1_545  S
C188       C2149   1.529       .  S
C188        O198   1.269       .  A
C188        O189   1.280       .  A
O189      Al1183   2.014       .  S
O190        C192   1.270   1_565  A
O190       Al191   1.914       .  S
Al191       O199   1.896   1_565  S
Al191       O201   1.985   1_565  S
Al191      O1181   2.014       .  S
Al191      O1192   1.794       .  S
C192       C2038   1.536       .  S
C192        O205   1.288   1_545  A
O193        C203   1.267       .  A
O193      Al1187   1.903       .  S
O194        C207   1.258       .  A
O194       Al204   1.870       .  S
Al195       O205   2.036       .  S
Al195      O1185   1.903       .  S
Al195      O1200   2.026       .  S
Al195      O1192   1.794       .  S
O196        C203   1.282       .  A
O196       Al204   2.016       .  S
O197       C1198   1.280       .  A
O197       Al204   2.007       .  S
O198       Al204   1.913       .  S
O199        C206   1.261   1_545  A
O200       Al204   1.797       .  S
O200      Al1183   1.794       .  S
O200      Al1187   1.793       .  S
O201        C202   1.274       .  A
C206       O1189   1.280       .  A
C207        O208   1.283       .  A
O208      Al1187   2.026       .  S
C209        C214   1.403       .  A
C209        C706   1.396       .  A
C209        H225   1.081       .  S
C210        C211   1.402       .  A
C210        C705   1.396       .  A
C210        H226   1.084       .  S
C211        C221   1.396       .  A
C211        C212   1.411       .  A
C212        C218   1.405       .  A
C212        C709   1.397       .  A
C213        C215   1.412       .  A
C213        C214   1.409       .  A
C213        C708   1.397       .  A
C214        C222   1.394       .  A
C215        C224   1.386       .  A
C215        C216   1.399       .  A
C216        C713   1.389       .  A
C216        H227   1.083       .  S
C217        C218   1.401       .  A
C217        C712   1.389       .  A
C217        H228   1.084       .  S
C218        C219   1.380       .  A
C219        C220   1.404       .  A
C219        H229   1.075       .  S
C220        C221   1.403       .  A
C221        H230   1.079       .  S
C222        C223   1.401       .  A
C222        H231   1.084       .  S
C223        C224   1.388       .  A
C224        H232   1.073       .  S
C233        C234   1.397       .  A
C233        C238   1.402       .  A
C233       H1241   1.083       .  S
C234        C235   1.400       .  A
C234        H250   1.083       .  S
C235        C245   1.393       .  A
C235        C236   1.412       .  A
C236        C242   1.409       .  A
C236        C237   1.393       .  A
C237        C239   1.405       .  A
C237        C238   1.410       .  A
C238        C246   1.395       .  A
C239        C248   1.376       .  A
C239        C240   1.401       .  A
C240        C241   1.387       .  A
C240        H251   1.084       .  S
C241        C242   1.398       .  A
C241        H252   1.084       .  S
C242        C243   1.377       .  A
C243        C244   1.384       .  A
C243        H253   1.069       .  S
C244        C245   1.397       .  A
C245        H254   1.084       .  S
C246        C247   1.407       .  A
C246       H1247   1.083       .  S
C247        C248   1.408       .  A
C248        H256   1.079       .  S
H249       C1225   1.083       .  S
H255       C1238   1.083       .  S
C257        C258   1.379       .  A
C257        C262   1.393       .  A
C257        H273   1.081       .  S
C258        C259   1.397       .  A
C258        H274   1.084       .  S
C259        C269   1.366       .  A
C259        C260   1.402       .  A
C260        C266   1.407       .  A
C260        C261   1.389       .  A
C261        C263   1.409       .  A
C261        C262   1.406       .  A
C262        C270   1.370       .  A
C263        C272   1.398       .  A
C263        C264   1.401       .  A
C264        C265   1.399       .  A
C264        H275   1.077       .  S
C265        C266   1.404       .  A
C265       H1268   1.084       .  S
C266        C267   1.397       .  A
C267        C268   1.415       .  A
C267       H1269   1.080       .  S
C268        C269   1.396       .  A
C269        H278   1.064       .  S
C270        C271   1.384       .  A
C270        H279   1.084       .  S
C271        C272   1.401       .  A
C272        H280   1.084       .  S
H276       C1257   1.084       .  S
H277       C1259   1.080       .  S
C281        C282   1.390       .  A
C281       C1278   1.399       .  A
C281        H297   1.084       .  S
C282        C283   1.403       .  A
C282        H298   1.084       .  S
C283        C293   1.382       .  A
C283       C1276   1.401   1_545  A
C284        C290   1.409       .  A
C284        C285   1.397       .  A
C284       C1275   1.401       .  A
C285        C287   1.409       .  A
C285        C286   1.414       .  A
C286        C294   1.388       .  A
C286       C1273   1.399       .  A
C287        C296   1.389       .  A
C287        C288   1.402       .  A
C288        C289   1.395       .  A
C288        H299   1.084       .  S
C289        C290   1.403       .  A
C289        H300   1.084       .  S
C290        C291   1.394       .  A
C291       C1284   1.411       .  A
C291        H301   1.077       .  S
C292        C293   1.415   1_565  A
C292       C1283   1.411       .  A
C293        H302   1.074       .  S
C294        C295   1.393       .  A
C294        H303   1.085       .  S
C295        C296   1.398       .  A
C296        H304   1.080       .  S
C305        C306   1.390       .  A
C305        C310   1.397       .  A
C305        H321   1.080       .  S
C306        C307   1.401       .  A
C306        H322   1.084       .  S
C307        C317   1.381       .  A
C307        C308   1.405       .  A
C308        C314   1.410       .  A
C308        C309   1.397       .  A
C309        C311   1.409       .  A
C309        C310   1.411       .  A
C310        C318   1.385       .  A
C311        C320   1.394       .  A
C311        C312   1.404       .  A
C312        C313   1.400       .  A
C312        H323   1.083       .  S
C313        C314   1.403       .  A
C313        H324   1.084       .  S
C314        C315   1.401       .  A
C315        C316   1.408       .  A
C315        H325   1.083       .  S
C316        C317   1.410       .  A
C317        H326   1.079       .  S
C318        C319   1.392       .  A
C318        H327   1.083       .  S
C319        C320   1.404       .  A
C320        H328   1.081       .  S
C329        C330   1.394       .  A
C329        C334   1.404       .  A
C329        H345   1.084       .  S
C330        C331   1.400       .  A
C330        H346   1.084       .  S
C331        C332   1.414       .  A
C331        C837   1.395       .  A
C332        C338   1.407       .  A
C332        C333   1.401       .  A
C333        C335   1.411       .  A
C333        C334   1.403       .  A
C334        C342   1.387       .  A
C335        C344   1.400       .  A
C335        C336   1.403       .  A
C336        C337   1.398       .  A
C336        H347   1.084       .  S
C337        C338   1.402       .  A
C337        H348   1.084       .  S
C338        C835   1.391       .  A
C339        C340   1.399   1_556  A
C339        C834   1.391       .  A
C339        H349   1.079       .  S
C340       N2089   1.420       .  S
C340        C341   1.397       .  A
C341        C827   1.395   1_554  A
C341       H2334   1.085       .  S
C342        C343   1.413       .  A
C342        H351   1.075       .  S
C343        C344   1.411       .  A
C344        H352   1.083       .  S
H350       C2325   1.085       .  S
C353        C354   1.389       .  A
C353        C358   1.401       .  A
C353        H369   1.084       .  S
C354        C355   1.400       .  A
C354        H370   1.084       .  S
C355        C365   1.382       .  A
C355        C356   1.410       .  A
C356        C362   1.411       .  A
C356        C357   1.395       .  A
C357        C359   1.409       .  A
C357        C358   1.406       .  A
C358        C366   1.382       .  A
C359        C368   1.394       .  A
C359        C360   1.402       .  A
C360        C361   1.396       .  A
C360        H371   1.083       .  S
C361        C362   1.401       .  A
C361        H372   1.083       .  S
C362        C363   1.394       .  A
C363        C364   1.398       .  A
C363        H373   1.084       .  S
C364        C365   1.392       .  A
C365        H374   1.074       .  S
C366        C367   1.409       .  A
C366        H375   1.082       .  S
C367        C368   1.403       .  A
C368        H376   1.078       .  S
C377        C382   1.402       .  A
C377        C874   1.397       .  A
C377        H889   1.076       .  S
C378        C873   1.397       .  A
C378        C875   1.402       .  A
C378        H394   1.084       .  S
C379        C380   1.409       .  A
C379        C874   1.402       .  A
C379        C885   1.395       .  A
C380        C386   1.408       .  A
C380        C381   1.397       .  A
C381        C383   1.406       .  A
C381        C382   1.410       .  A
C382        C390   1.401       .  A
C383        C392   1.379       .  A
C383        C384   1.399       .  A
C384        C385   1.386       .  A
C384        H395   1.082       .  S
C385        C386   1.398       .  A
C385        H396   1.084       .  S
C386        C387   1.379   1_455  A
C387       C2372   1.405       .  A
C387       H2381   1.082       .  S
C388       C2371   1.405       .  A
C388       C2869   1.404       .  A
C389        C875   1.395       .  A
C389       C2868   1.404   1_455  A
C389       H2382   1.077       .  S
C390        C391   1.404       .  A
C390        H399   1.083       .  S
C391        C392   1.397       .  A
C392        H400   1.070       .  S
H393        C873   1.076       .  S
H397       C2371   1.082       .  S
H398       C2373   1.077       .  S
C401        C402   1.396       .  A
C401       C2390   1.403       .  A
C401        H417   1.084       .  S
C402        C403   1.398       .  A
C402        H418   1.082       .  S
C403        C404   1.411       .  A
C403       C1405   1.391       .  A
C404       C2394   1.409   1_655  A
C404       C2389   1.396       .  A
C405        C407   1.404       .  A
C405        C406   1.408       .  A
C405       C2388   1.396       .  A
C406        C414   1.394       .  A
C406       C2385   1.403       .  A
C407        C416   1.382       .  A
C407        C408   1.403       .  A
C408        C409   1.390       .  A
C408        H419   1.084       .  S
C409        C410   1.399       .  A
C409        H420   1.084       .  S
C410       C2388   1.409       .  A
C410       C2395   1.382       .  A
C411       C2394   1.382       .  A
C411       C1404   1.389       .  A
C411        H421   1.074       .  S
C412        C413   1.394   1_455  A
C412       C1403   1.389   1_545  A
C413       C1395   1.391   1_545  A
C413        H422   1.085       .  S
C414        C415   1.410       .  A
C414        H423   1.079       .  S
C415        C416   1.414       .  A
C416        H424   1.078       .  S
C425        C426   1.394       .  A
C425       C2414   1.402       .  A
C425        H441   1.084       .  S
C426        C427   1.400       .  A
C426        H442   1.079       .  S
C427        C437   1.394       .  A
C427        C428   1.412       .  A
C428        C434   1.409       .  A
C428       C2413   1.394       .  A
C429        C431   1.406       .  A
C429        C430   1.409       .  A
C429       C2412   1.394   1_455  A
C430        C438   1.392       .  A
C430       C2409   1.402   1_455  A
C431        C440   1.378       .  A
C431        C432   1.400       .  A
C432        C433   1.386       .  A
C432        H443   1.084       .  S
C433       C2418   1.398   1_455  A
C433        H444   1.084       .  S
C434        C435   1.376       .  A
C434       C2417   1.398       .  A
C435        C436   1.384       .  A
C435        H445   1.069       .  S
C436        C437   1.397       .  A
C437        H446   1.084       .  S
C438        C439   1.406       .  A
C438        H447   1.080       .  S
C439        C440   1.408       .  A
C440        H448   1.079       .  S
C449        C450   1.383       .  A
C449        C454   1.399       .  A
C449        H465   1.084       .  S
C450        C451   1.396       .  A
C450        H466   1.080       .  S
C451        C461   1.378       .  A
C451        C452   1.408       .  A
C452        C458   1.408       .  A
C452        C453   1.393       .  A
C453        C455   1.409       .  A
C453        C454   1.402       .  A
C454        C462   1.373       .  A
C455        C464   1.396       .  A
C455        C456   1.403       .  A
C456        C457   1.397       .  A
C456        H467   1.084       .  S
C457        C458   1.400       .  A
C457        H468   1.080       .  S
C458        C459   1.393       .  A
C459        C460   1.399       .  A
C459        H469   1.082       .  S
C460        C461   1.390       .  A
C461        H470   1.084   1_455  S
C462        C463   1.400       .  A
C462        H471   1.061       .  S
C463        C464   1.412       .  A
C464        H472   1.079       .  S
C473        C474   1.398       .  A
C473        C478   1.402       .  A
C473        H489   1.084       .  S
C474        C475   1.404       .  A
C474        H490   1.079       .  S
C475        C485   1.401       .  A
C475        C476   1.409       .  A
C476        C482   1.407       .  A
C476        C477   1.399       .  A
C477        C479   1.407       .  A
C477        C478   1.411       .  A
C478        C486   1.399       .  A
C479        C488   1.381       .  A
C479        C480   1.399       .  A
C480        C481   1.387       .  A
C480        H491   1.084       .  S
C481        C482   1.398       .  A
C481        H492   1.081       .  S
C482        C483   1.383       .  A
C483        C484   1.397       .  A
C483        H493   1.072       .  S
C484        C485   1.406       .  A
C485        H494   1.083       .  S
C486        C487   1.405       .  A
C486        H495   1.080       .  S
C487        C488   1.403       .  A
C488        H496   1.078       .  S
N497        C501   1.380       .  A
N497        C498   1.372       .  A
N497        C980   1.434       .  S
C498        C499   1.388       .  A
C498        C636   1.537       .  S
C499        C500   1.390       .  A
C500        C501   1.383       .  A
C501        C594   1.521       .  S
N504       C2492   1.365   1_445  A
N504        C505   1.361       .  A
N504        C956   1.414       .  S
C505       C1498   1.386   1_545  A
C505        C580   1.534       .  S
C506       C1497   1.386       .  A
C506       C2491   1.396   1_455  A
C506        H509   1.081       .  S
C507       C2490   1.396       .  A
C507       C1500   1.386       .  A
C507        H510   1.082       .  S
C508       N2488   1.365   1_565  A
C508       C1499   1.386       .  A
C508        C702   1.512       .  S
N511        C515   1.362       .  A
N511        C512   1.359       .  A
N511        C932   1.409       .  S
C512        C513   1.388       .  A
C512        C699   1.532       .  S
C513        C514   1.397       .  A
C513        H516   1.082       .  S
C514        C515   1.382       .  A
C514        H517   1.079       .  S
C515        C651   1.513       .  S
C518        C519   1.403       .  A
C518        C523   1.383       .  A
C518        C983   1.473       .  S
C519        C520   1.401       .  A
C519        H524   1.079       .  S
C520        C521   1.405       .  A
C520        C959   1.485       .  S
C521        C522   1.389       .  A
C521        H525   1.075       .  S
C522        C523   1.396       .  A
C522        C935   1.478       .  S
C523        H526   1.078       .  S
O527        C542   1.256       .  A
O527       Al535   1.875       .  S
C528        C564   1.539       .  S
C528        O538   1.267       .  A
C528        O529   1.285       .  A
O529       Al531   2.033       .  S
O530        C532   1.268       .  A
O530       Al531   1.906       .  S
Al531       O539   1.889       .  S
Al531       O541   2.019       .  S
Al531       O540   1.793       .  S
C532        C668   1.522       .  S
C532        O545   1.279       .  A
O533        C543   1.264       .  A
O533       Al535   1.897       .  S
O534        C547   1.264       .  A
O534       Al544   1.893       .  S
Al535       O548   2.007       .  S
Al535       O545   2.001       .  S
Al535       O540   1.786       .  S
O536        C543   1.282       .  A
O536       Al544   2.014       .  S
O537        C546   1.283       .  A
O537       Al544   2.019       .  S
O538       Al544   1.908       .  S
O539        C546   1.259       .  A
O540       Al544   1.795       .  S
O541        C542   1.280       .  A
C542        C560   1.519       .  S
C543        C616   1.519       .  S
C546        C612   1.520       .  S
C547        C664   1.518       .  S
C547        O548   1.279       .  A
N549        C553   1.366       .  A
N549        C550   1.361       .  A
N549        C908   1.408       .  S
C550        C551   1.387       .  A
C550       C2672   1.536       .  S
C551        C552   1.397       .  A
C551        H554   1.082       .  S
C552        C553   1.385       .  A
C552        H555   1.077       .  S
C553        C599   1.523       .  S
N556        C560   1.378       .  A
N556        C557   1.375       .  A
N556        C887   1.433       .  S
C557        C558   1.389       .  A
C557        C584   1.540       .  S
C558        C559   1.390       .  A
C558        H561   1.082       .  S
C559        C560   1.382       .  A
C559        H562   1.082       .  S
N563        C567   1.371       .  A
N563        C564   1.365       .  A
N563        C860   1.418       .  S
C564        C565   1.388       .  A
C565        C566   1.396       .  A
C565        H568   1.082       .  S
C566        C567   1.383       .  A
C566        H569   1.081       .  S
C567        C703   1.521       .  S
C570        C571   1.397       .  A
C570        C575   1.397       .  A
C570        C911   1.492       .  S
C571        H576   1.074       .  S
C572        C573   1.396       .  A
C572        C863   1.476   1_554  S
C573        C574   1.398       .  A
C573        H577   1.080   1_554  S
C574        C884   1.472       .  S
C575        H578   1.077       .  S
O579        C594   1.257       .  A
O579       Al587   1.875       .  S
C580        O590   1.266       .  A
C580        O581   1.285       .  A
O581       Al583   2.028       .  S
O582        C584   1.270       .  A
O582       Al583   1.913       .  S
Al583       O591   1.886       .  S
Al583       O593   2.022       .  S
O585        C595   1.265       .  A
O585       Al587   1.904       .  S
O586        C599   1.262       .  A
O586       Al596   1.891       .  S
Al587       O600   2.019       .  S
Al587       O597   2.015       .  S
Al587       O592   1.791       .  S
O588        C595   1.279       .  A
O588       Al596   2.000       .  S
O589        C598   1.277       .  A
O589      Al1588   1.988       .  S
O591       C1094   1.262       .  A
O592       Al596   1.799       .  S
C595        C602   1.514       .  S
Al596      O1581   1.988       .  S
C598       O1087   1.263       .  A
C599        O600   1.282       .  A
N601       C2589   1.367       .  A
N601        C602   1.356   1_655  A
N601       C2820   1.420       .  S
C602        C603   1.386       .  A
C603        C604   1.389   1_455  A
C603        H606   1.081       .  S
C604       C2589   1.384       .  A
C604        H607   1.082       .  S
C605       N2585   1.367       .  A
C605       C2588   1.384       .  A
C605        C650   1.505       .  S
N608        C612   1.374       .  A
N608        C609   1.361       .  A
N608        C815   1.420       .  S
C609        C610   1.386       .  A
C609        C647   1.523       .  S
C610        C611   1.389       .  A
C610        H613   1.080       .  S
C611        C612   1.383       .  A
C611        H614   1.082       .  S
N615        C619   1.362       .  A
N615        C616   1.357       .  A
N615        C791   1.413       .  S
C616        C617   1.386       .  A
C617        C618   1.391       .  A
C617        H620   1.082       .  S
C618        C619   1.385       .  A
C618        H621   1.081       .  S
C622        C623   1.407       .  A
C622        C627   1.412       .  A
C622        C839   1.493       .  S
C623        C624   1.399       .  A
C623        H628   1.081       .  S
C624        C625   1.382       .  A
C624        C812   1.492       .  S
C625        C626   1.399       .  A
C625        H629   1.078       .  S
C626        C627   1.406       .  A
C626        C788   1.503   1_545  S
C627        H630   1.079       .  S
O631        C646   1.262       .  A
O631       Al639   1.888       .  S
C632        C654   1.541       .  S
C632        O642   1.266       .  A
C632        O633   1.287       .  A
O633       Al635   2.038       .  S
O634        C636   1.270       .  A
O634       Al635   1.907       .  S
Al635       O643   1.875       .  S
Al635       O645   2.004       .  S
Al635       O644   1.799       .  S
C636        O649   1.277       .  A
O637        C647   1.268       .  A
O637       Al639   1.918       .  S
O638        C651   1.263       .  A
O638       Al648   1.884       .  S
Al639       O652   1.997       .  S
Al639       O649   1.999       .  S
Al639       O644   1.798       .  S
O640        C647   1.281       .  A
O640       Al648   2.006       .  S
O641        C650   1.280       .  A
O641       Al648   2.002       .  S
O642       Al648   1.897       .  S
O643        C650   1.258       .  A
O644       Al648   1.798       .  S
O645        C646   1.280       .  A
C651        O652   1.277       .  A
N653        C657   1.360       .  A
N653        C654   1.363       .  A
N653        C767   1.409       .  S
C654        C655   1.388       .  A
C655        C656   1.397       .  A
C655        H658   1.082       .  S
C656        C657   1.385       .  A
C656        H659   1.082       .  S
C657        C698   1.509       .  S
N660        C664   1.362       .  A
N660        C661   1.357       .  A
N660        C740   1.407       .  S
C661        C662   1.388       .  A
C661       C2668   1.529       .  S
C662        C663   1.398       .  A
C662       H2649   1.082       .  S
C663        C664   1.385       .  A
C663        H666   1.079       .  S
H665       C2646   1.082       .  S
N667        C671   1.366       .  A
N667        C668   1.358       .  A
N667        C719   1.417   1_556  S
C668        C669   1.384       .  A
C669        C670   1.393       .  A
C669        H672   1.078       .  S
C670        C671   1.383       .  A
C670        H673   1.082       .  S
C674        C675   1.386       .  A
C674        C679   1.401       .  A
C674        C716   1.474       .  S
C675        C676   1.394       .  A
C675        H680   1.080       .  S
C676       C1669   1.387       .  A
C676        C743   1.477       .  S
C677       C1668   1.387       .  A
C677        C678   1.409       .  A
C677        H681   1.075       .  S
C678       C1671   1.399       .  A
C678        C764   1.483       .  S
C679       C1670   1.400       .  A
C679        H682   1.080       .  S
O683        C698   1.262       .  A
O683       Al691   1.897   1_545  S
C684       C2645   1.529       .  S
C684        O694   1.269       .  A
C684        O685   1.280       .  A
O685      Al1679   2.014       .  S
O686        C688   1.270   1_565  A
O686       Al687   1.914       .  S
Al687      O1677   2.014       .  S
Al687       O695   1.896   1_565  S
Al687       O697   1.985   1_565  S
Al687      O1688   1.794       .  S
C688       C2534   1.536       .  S
C688        O701   1.288   1_545  A
O689        C699   1.267       .  A
O689      Al1683   1.903       .  S
O690        C703   1.258       .  A
O690       Al700   1.870       .  S
Al691      O1681   1.903       .  S
Al691      O1696   2.026       .  S
Al691       O701   2.036       .  S
Al691      O1688   1.794       .  S
O692        C699   1.282       .  A
O692       Al700   2.016       .  S
O693       C1694   1.280       .  A
O693       Al700   2.007       .  S
O694       Al700   1.913       .  S
O695        C702   1.261   1_545  A
O696      Al1679   1.794       .  S
O696      Al1683   1.793       .  S
O696       Al700   1.797       .  S
O697        C698   1.274       .  A
C702       O1685   1.280       .  A
C703        O704   1.283       .  A
O704      Al1683   2.026       .  S
C705        C710   1.403       .  A
C705        H721   1.081   1_554  S
C706        C707   1.402       .  A
C706        H722   1.084       .  S
C707        C717   1.396       .  A
C707        C708   1.411       .  A
C708        C714   1.405       .  A
C709        C711   1.412       .  A
C709        C710   1.409       .  A
C710        C718   1.394       .  A
C711        C720   1.386       .  A
C711        C712   1.399       .  A
C712        H723   1.083       .  S
C713        C714   1.401       .  A
C713        H724   1.084       .  S
C714        C715   1.380       .  A
C715        C716   1.404       .  A
C715        H725   1.075       .  S
C716        C717   1.403       .  A
C717        H726   1.079       .  S
C718        C719   1.401       .  A
C718        H727   1.084   1_554  S
C719        C720   1.388       .  A
C720        H728   1.073       .  S
C729        C730   1.397       .  A
C729        C734   1.402       .  A
C729       H1737   1.083       .  S
C730        C731   1.400       .  A
C730        H746   1.083       .  S
C731        C741   1.393       .  A
C731        C732   1.412       .  A
C732        C738   1.409       .  A
C732        C733   1.393       .  A
C733        C735   1.405       .  A
C733        C734   1.410       .  A
C734        C742   1.395       .  A
C735        C744   1.376       .  A
C735        C736   1.401       .  A
C736        C737   1.387       .  A
C736        H747   1.084       .  S
C737        C738   1.398       .  A
C737        H748   1.084       .  S
C738        C739   1.377       .  A
C739        C740   1.384       .  A
C739        H749   1.069       .  S
C740        C741   1.397       .  A
C741        H750   1.084       .  S
C742        C743   1.407       .  A
C742       H1743   1.083       .  S
C743        C744   1.408       .  A
C744        H752   1.079       .  S
H745       C1721   1.083       .  S
H751       C1734   1.083       .  S
C753        C754   1.379       .  A
C753        C758   1.393       .  A
C753        H769   1.081       .  S
C754        C755   1.397       .  A
C754        H770   1.084       .  S
C755        C765   1.366       .  A
C755        C756   1.402       .  A
C756        C762   1.407       .  A
C756        C757   1.389       .  A
C757        C759   1.409       .  A
C757        C758   1.406       .  A
C758        C766   1.370       .  A
C759        C768   1.398       .  A
C759        C760   1.401       .  A
C760        C761   1.399       .  A
C760        H771   1.077       .  S
C761        C762   1.404       .  A
C761       H1764   1.084       .  S
C762        C763   1.397       .  A
C763        C764   1.415       .  A
C763       H1765   1.080       .  S
C764        C765   1.396       .  A
C765        H774   1.064       .  S
C766        C767   1.384       .  A
C766        H775   1.084       .  S
C767        C768   1.401       .  A
C768        H776   1.084       .  S
H772       C1753   1.084       .  S
H773       C1755   1.080       .  S
C777        C778   1.390       .  A
C777       C1774   1.399       .  A
C777        H793   1.084       .  S
C778        C779   1.403       .  A
C778        H794   1.084       .  S
C779        C789   1.382       .  A
C779       C1772   1.401   1_545  A
C780       C1771   1.401       .  A
C780        C786   1.409       .  A
C780        C781   1.397       .  A
C781        C783   1.409       .  A
C781        C782   1.414       .  A
C782       C1769   1.399       .  A
C782        C790   1.388       .  A
C783        C792   1.389       .  A
C783        C784   1.402       .  A
C784        C785   1.395       .  A
C784        H795   1.084       .  S
C785        C786   1.403       .  A
C785        H796   1.084       .  S
C786        C787   1.394       .  A
C787       C1780   1.411       .  A
C787        H797   1.077       .  S
C788       C1779   1.411       .  A
C788        C789   1.415   1_565  A
C789        H798   1.074       .  S
C790        C791   1.393       .  A
C790        H799   1.085       .  S
C791        C792   1.398       .  A
C792        H800   1.080       .  S
C801        C802   1.390       .  A
C801        C806   1.397       .  A
C801        H817   1.080       .  S
C802        C803   1.401       .  A
C802        H818   1.084       .  S
C803        C813   1.381       .  A
C803        C804   1.405       .  A
C804        C810   1.410       .  A
C804        C805   1.397       .  A
C805        C807   1.409       .  A
C805        C806   1.411       .  A
C806        C814   1.385       .  A
C807        C816   1.394       .  A
C807        C808   1.404       .  A
C808        C809   1.400       .  A
C808        H819   1.083       .  S
C809        C810   1.403       .  A
C809        H820   1.084       .  S
C810        C811   1.401       .  A
C811        C812   1.408       .  A
C811        H821   1.083       .  S
C812        C813   1.410       .  A
C813        H822   1.079       .  S
C814        C815   1.392       .  A
C814        H823   1.083       .  S
C815        C816   1.404       .  A
C816        H824   1.081       .  S
C825        C826   1.394       .  A
C825        C830   1.404       .  A
C825        H841   1.084       .  S
C826        C827   1.400       .  A
C826        H842   1.084   1_556  S
C827        C828   1.414       .  A
C828        C834   1.407       .  A
C828        C829   1.401       .  A
C829        C831   1.411       .  A
C829        C830   1.403       .  A
C830        C838   1.387       .  A
C831        C840   1.400       .  A
C831        C832   1.403       .  A
C832        C833   1.398       .  A
C832        H843   1.084       .  S
C833        C834   1.402       .  A
C833        H844   1.084       .  S
C835        C836   1.399       .  A
C835        H845   1.079       .  S
C836       N2585   1.420       .  S
C836        C837   1.397       .  A
C837       H2830   1.085       .  S
C838        C839   1.413       .  A
C838        H847   1.075       .  S
C839        C840   1.411       .  A
C840        H848   1.083       .  S
H846       C2821   1.085       .  S
C849        C850   1.389       .  A
C849        C854   1.401       .  A
C849        H865   1.084       .  S
C850        C851   1.400       .  A
C850        H866   1.084       .  S
C851        C861   1.382       .  A
C851        C852   1.410       .  A
C852        C858   1.411       .  A
C852        C853   1.395       .  A
C853        C855   1.409       .  A
C853        C854   1.406       .  A
C854        C862   1.382       .  A
C855        C864   1.394       .  A
C855        C856   1.402       .  A
C856        C857   1.396       .  A
C856        H867   1.083       .  S
C857        C858   1.401       .  A
C857        H868   1.083       .  S
C858        C859   1.394       .  A
C859        C860   1.398       .  A
C859        H869   1.084       .  S
C860        C861   1.392       .  A
C861        H870   1.074       .  S
C862        C863   1.409       .  A
C862        H871   1.082       .  S
C863        C864   1.403       .  A
C864        H872   1.078       .  S
C873        C878   1.402   1_554  A
C874        H890   1.084       .  S
C875        C876   1.409   1_554  A
C876        C882   1.408       .  A
C876        C877   1.397       .  A
C877        C879   1.406       .  A
C877        C878   1.410       .  A
C878        C886   1.401       .  A
C879        C888   1.379       .  A
C879        C880   1.399       .  A
C880        C881   1.386       .  A
C880        H891   1.082       .  S
C881        C882   1.398       .  A
C881        H892   1.084       .  S
C882        C883   1.379   1_455  A
C883       C2868   1.405   1_556  A
C883       H2877   1.082       .  S
C884       C2867   1.405   1_554  A
C884       C2373   1.404       .  A
C885       C2372   1.404   1_455  A
C885       H2878   1.077       .  S
C886        C887   1.404       .  A
C886        H895   1.083       .  S
C887        C888   1.397       .  A
C888        H896   1.070       .  S
H893       C2867   1.082       .  S
H894       C2869   1.077       .  S
C897        C898   1.396       .  A
C897       C2886   1.403       .  A
C897        H913   1.084       .  S
C898        C899   1.398       .  A
C898        H914   1.082       .  S
C899       C1901   1.391       .  A
C899        C900   1.411       .  A
C900       C2890   1.409   1_655  A
C900       C2885   1.396       .  A
C901       C2884   1.396       .  A
C901        C903   1.404       .  A
C901        C902   1.408       .  A
C902       C2881   1.403       .  A
C902        C910   1.394       .  A
C903        C912   1.382       .  A
C903        C904   1.403       .  A
C904        C905   1.390       .  A
C904        H915   1.084       .  S
C905        C906   1.399       .  A
C905        H916   1.084       .  S
C906       C2884   1.409       .  A
C906       C2891   1.382       .  A
C907       C2890   1.382       .  A
C907       C1900   1.389       .  A
C907        H917   1.074       .  S
C908       C1899   1.389   1_545  A
C908        C909   1.394   1_455  A
C909       C1891   1.391   1_545  A
C909        H918   1.085       .  S
C910        C911   1.410       .  A
C910        H919   1.079       .  S
C911        C912   1.414       .  A
C912        H920   1.078       .  S
C921        C922   1.394       .  A
C921       C2910   1.402       .  A
C921        H937   1.084       .  S
C922        C923   1.400       .  A
C922        H938   1.079       .  S
C923        C933   1.394       .  A
C923        C924   1.412       .  A
C924        C930   1.409       .  A
C924       C2909   1.394       .  A
C925       C2908   1.394   1_455  A
C925        C927   1.406       .  A
C925        C926   1.409       .  A
C926       C2905   1.402   1_455  A
C926        C934   1.392       .  A
C927        C936   1.378       .  A
C927        C928   1.400       .  A
C928        C929   1.386       .  A
C928        H939   1.084       .  S
C929       C2914   1.398   1_455  A
C929        H940   1.084       .  S
C930       C2913   1.398       .  A
C930        C931   1.376       .  A
C931        C932   1.384       .  A
C931        H941   1.069       .  S
C932        C933   1.397       .  A
C933        H942   1.084       .  S
C934        C935   1.406       .  A
C934        H943   1.080       .  S
C935        C936   1.408       .  A
C936        H944   1.079       .  S
C945        C946   1.383       .  A
C945        C950   1.399       .  A
C945        H961   1.084       .  S
C946        C947   1.396       .  A
C946        H962   1.080       .  S
C947        C957   1.378       .  A
C947        C948   1.408       .  A
C948        C954   1.408       .  A
C948        C949   1.393       .  A
C949        C951   1.409       .  A
C949        C950   1.402       .  A
C950        C958   1.373       .  A
C951        C960   1.396       .  A
C951        C952   1.403       .  A
C952        C953   1.397       .  A
C952        H963   1.084       .  S
C953        C954   1.400       .  A
C953        H964   1.080       .  S
C954        C955   1.393       .  A
C955        C956   1.399       .  A
C955        H965   1.082       .  S
C956        C957   1.390       .  A
C957        H966   1.084   1_455  S
C958        C959   1.400       .  A
C958        H967   1.061       .  S
C959        C960   1.412       .  A
C960        H968   1.079       .  S
C969        C970   1.398       .  A
C969        C974   1.402       .  A
C969        H985   1.084       .  S
C970        C971   1.404       .  A
C970        H986   1.079       .  S
C971        C981   1.401       .  A
C971        C972   1.409       .  A
C972        C978   1.407       .  A
C972        C973   1.399       .  A
C973        C975   1.407       .  A
C973        C974   1.411       .  A
C974        C982   1.399       .  A
C975        C984   1.381       .  A
C975        C976   1.399       .  A
C976        C977   1.387       .  A
C976        H987   1.084       .  S
C977        C978   1.398       .  A
C977        H988   1.081       .  S
C978        C979   1.383       .  A
C979        C980   1.397       .  A
C979        H989   1.072       .  S
C980        C981   1.406       .  A
C981        H990   1.083       .  S
C982        C983   1.405       .  A
C982        H991   1.080       .  S
C983        C984   1.403       .  A
C984        H992   1.078       .  S
N993        C997   1.379       .  A
N993        C994   1.372       .  A
N993       C1476   1.434       .  S
C994        C995   1.388       .  A
C994       C1132   1.537       .  S
C995        C996   1.390   1_554  A
C995       H1494   1.082       .  S
C996        C997   1.383   1_556  A
C996       H1495   1.082       .  S
C997       C1090   1.521       .  S
H998       C1491   1.082       .  S
H999       C1492   1.082       .  S
N1000      C2988   1.365   1_455  A
N1000      C1001   1.361       .  A
N1000      C1452   1.414       .  S
C1001      C1076   1.534       .  S
C1002      C2987   1.396   1_455  A
C1002      H1005   1.081       .  S
C1003      C2986   1.396       .  A
C1003      H1006   1.082       .  S
C1004      N2984   1.365       .  A
C1004      C1198   1.512       .  S
N1007      C1011   1.362       .  A
N1007      C1008   1.359       .  A
N1007      C1428   1.409       .  S
C1008      C1009   1.388       .  A
C1008      C1195   1.532       .  S
C1009      C1010   1.397       .  A
C1009      H1012   1.082       .  S
C1010      C1011   1.382       .  A
C1010      H1013   1.079       .  S
C1011      C1147   1.513       .  S
C1014      C1015   1.403       .  A
C1014      C1019   1.383       .  A
C1014      C1479   1.473       .  S
C1015      C1016   1.401       .  A
C1015      H1020   1.079       .  S
C1016      C1017   1.405       .  A
C1016      C1455   1.485       .  S
C1017      C1018   1.389       .  A
C1017      H1021   1.075       .  S
C1018      C1019   1.395       .  A
C1018      C1431   1.478       .  S
C1019      H1022   1.078       .  S
O1023      C1038   1.256       .  A
O1023     Al1031   1.875       .  S
C1024      C1060   1.539       .  S
C1024      O1034   1.267       .  A
C1024      O1025   1.285       .  A
O1025     Al1027   2.033       .  S
O1026      C1028   1.268       .  A
O1026     Al1027   1.906       .  S
Al1027     O1035   1.889       .  S
Al1027     O1037   2.019       .  S
Al1027     O1036   1.793       .  S
C1028      C1164   1.523       .  S
C1028      O1041   1.279       .  A
O1029      C1039   1.264       .  A
O1029     Al1031   1.897       .  S
O1030      C1043   1.264       .  A
O1030     Al1040   1.893       .  S
Al1031     O1044   2.008       .  S
Al1031     O1041   2.001       .  S
Al1031     O1036   1.786       .  S
O1032      C1039   1.282       .  A
O1032     Al1040   2.014       .  S
O1033      C1042   1.283       .  A
O1033     Al1040   2.020       .  S
O1034     Al1040   1.908       .  S
O1035      C1042   1.259       .  A
O1036     Al1040   1.795       .  S
O1037      C1038   1.280       .  A
C1038      C1056   1.519       .  S
C1039      C1112   1.519       .  S
C1042      C1108   1.520       .  S
C1043      C1160   1.518       .  S
C1043      O1044   1.279       .  A
N1045      C1049   1.366       .  A
N1045      C1046   1.361       .  A
N1045      C1404   1.408       .  S
C1046      C1047   1.387       .  A
C1046      C3168   1.536       .  S
C1047      C1048   1.397       .  A
C1047      H1050   1.082       .  S
C1048      C1049   1.385       .  A
C1048      H1051   1.077       .  S
C1049      C1095   1.524       .  S
N1052      C1056   1.378       .  A
N1052      C1053   1.375       .  A
N1052      C1383   1.433       .  S
C1053      C1054   1.389       .  A
C1053      C1080   1.541       .  S
C1054      C1055   1.390       .  A
C1054      H1057   1.082       .  S
C1055      C1056   1.382       .  A
C1055      H1058   1.082       .  S
N1059      C1063   1.371       .  A
N1059      C1060   1.365       .  A
N1059      C1356   1.418       .  S
C1060      C1061   1.388       .  A
C1061      C1062   1.396       .  A
C1061      H1064   1.082       .  S
C1062      C1063   1.383       .  A
C1062      H1065   1.081       .  S
C1063      C1199   1.521       .  S
C1066      C1067   1.397       .  A
C1066      C1071   1.397       .  A
C1066      C1407   1.492       .  S
C1067      C1564   1.402       .  A
C1067      H1072   1.074       .  S
C1068      C1563   1.402       .  A
C1068      C1069   1.396       .  A
C1068      C1359   1.476       .  S
C1069      C1070   1.397       .  A
C1069      H1073   1.080       .  S
C1070      C1567   1.383       .  A
C1070      C1380   1.472       .  S
C1071      C1566   1.383       .  A
C1071      H1074   1.077       .  S
O1075      C1090   1.257       .  A
O1075     Al1083   1.874       .  S
C1076      O1086   1.266       .  A
C1076      O1077   1.285       .  A
O1077     Al1079   2.028       .  S
O1078      C1080   1.270       .  A
O1078     Al1079   1.913       .  S
Al1079     O1087   1.886       .  S
Al1079     O1089   2.022       .  S
Al1079     O1584   1.797       .  S
C1080      O1589   1.280       .  A
O1081      C1091   1.265       .  A
O1081     Al1083   1.904       .  S
O1082      C1095   1.262       .  A
O1082     Al1092   1.891   1_554  S
Al1083     O1096   2.020       .  S
Al1083     O1093   2.015   1_554  S
Al1083     O1088   1.791   1_554  S
O1084      C1091   1.279       .  A
O1084     Al1092   2.001   1_554  S
O1085      C1094   1.277       .  A
O1086     Al1588   1.901       .  S
O1088     Al1575   1.797       .  S
O1088     Al1092   1.799       .  S
O1089      C1586   1.282       .  A
C1090      O1585   1.282   1_554  A
C1091      C1098   1.514       .  S
Al1092     O1582   1.901       .  S
O1093      C1576   1.280       .  A
C1094      C1611   1.505   1_545  S
C1095      O1096   1.282       .  A
N1097      C3085   1.367       .  A
N1097      C1098   1.356   1_655  A
N1097      C3316   1.420       .  S
C1098      C1099   1.386       .  A
C1099      C1100   1.389   1_455  A
C1099      H1102   1.081       .  S
C1100      C3085   1.384       .  A
C1100      H1103   1.082       .  S
C1101      N3081   1.367       .  A
C1101      C3084   1.384       .  A
C1101      C1146   1.505       .  S
N1104      C1108   1.374       .  A
N1104      C1105   1.361       .  A
N1104      C1311   1.420       .  S
C1105      C1106   1.386       .  A
C1105      C1143   1.523       .  S
C1106      C1107   1.390       .  A
C1106      H1109   1.080       .  S
C1107      C1108   1.383       .  A
C1107      H1110   1.082       .  S
N1111      C1115   1.362       .  A
N1111      C1112   1.357       .  A
N1111      C1287   1.413       .  S
C1112      C1113   1.386       .  A
C1113      C1114   1.391       .  A
C1113      H1116   1.082       .  S
C1114      C1115   1.385       .  A
C1114      H1117   1.081       .  S
C1115      C1590   1.505   1_565  S
C1118      C1119   1.407       .  A
C1118      C1123   1.412       .  A
C1118      C1335   1.493       .  S
C1119      C1120   1.399       .  A
C1119      H1124   1.081       .  S
C1120      C1121   1.382       .  A
C1120      C1308   1.492       .  S
C1121      C1122   1.399       .  A
C1121      H1125   1.078       .  S
C1122      C1123   1.406       .  A
C1122      C1284   1.503       .  S
C1123      H1126   1.079       .  S
O1127      C1142   1.262       .  A
O1127     Al1135   1.888       .  S
C1128      C1150   1.541       .  S
C1128      O1138   1.266       .  A
C1128      O1129   1.287       .  A
O1129     Al1131   2.038       .  S
O1130      C1132   1.270       .  A
O1130     Al1131   1.907       .  S
Al1131     O1139   1.875       .  S
Al1131     O1141   2.005       .  S
Al1131     O1140   1.799       .  S
C1132      O1145   1.277       .  A
O1133      C1143   1.268       .  A
O1133     Al1135   1.918       .  S
O1134      C1147   1.263       .  A
O1134     Al1144   1.885       .  S
Al1135     O1148   1.997       .  S
Al1135     O1145   1.999       .  S
Al1135     O1140   1.798       .  S
O1136      C1143   1.281       .  A
O1136     Al1144   2.006       .  S
O1137      C1146   1.280       .  A
O1137     Al1144   2.002       .  S
O1138     Al1144   1.897       .  S
O1139      C1146   1.258       .  A
O1140     Al1144   1.798       .  S
O1141      C1142   1.281       .  A
C1142      C1663   1.510   1_554  S
C1147      O1148   1.277       .  A
N1149      C1153   1.360       .  A
N1149      C1150   1.363       .  A
N1149      C1263   1.409       .  S
C1150      C1151   1.388       .  A
C1151      C1152   1.398       .  A
C1151      H1154   1.082       .  S
C1152      C1153   1.385       .  A
C1152      H1155   1.082       .  S
C1153      C1194   1.510       .  S
N1156      C1160   1.362       .  A
N1156      C1157   1.357       .  A
N1156      C1236   1.407       .  S
C1157      C1158   1.388       .  A
C1157      C3164   1.529       .  S
C1158      C1159   1.398       .  A
C1158      H3145   1.082       .  S
C1159      C1160   1.385       .  A
C1159      H1162   1.079       .  S
H1161      C3142   1.082       .  S
N1163      C1167   1.366       .  A
N1163      C1164   1.358       .  A
N1163      C1215   1.417       .  S
C1164      C1165   1.384       .  A
C1165      C1166   1.393       .  A
C1165      H1168   1.078       .  S
C1166      C1167   1.383       .  A
C1166      H1169   1.082       .  S
C1167      C1638   1.510       .  S
C1170      C1171   1.386       .  A
C1170      C1175   1.401   1_565  A
C1170      C1212   1.474       .  S
C1171      C1172   1.394   1_565  A
C1171      H1176   1.080       .  S
C1172      C1239   1.477       .  S
C1173      C1174   1.409       .  A
C1173      H1177   1.075       .  S
C1174      C1260   1.483       .  S
C1175      H1178   1.080       .  S
O1179      C1194   1.262       .  A
O1179     Al1187   1.897       .  S
C1180      C3141   1.529       .  S
C1180      O1190   1.270       .  A
C1180      O1181   1.280       .  A
O1182      C1184   1.270       .  A
O1182     Al1183   1.914       .  S
Al1183     O1191   1.896       .  S
Al1183     O1193   1.985       .  S
C1184      C3030   1.536       .  S
C1184      O1197   1.288       .  A
O1185      C1195   1.267       .  A
O1186      C1199   1.258       .  A
O1186     Al1196   1.869       .  S
Al1187     O1197   2.036       .  S
O1188      C1195   1.282       .  A
O1188     Al1196   2.016       .  S
O1189     Al1196   2.007       .  S
O1190     Al1196   1.913       .  S
O1191      C1198   1.261       .  A
O1192     Al1196   1.796       .  S
O1193      C1194   1.274       .  A
C1199      O1200   1.283       .  A
C1201      C1698   1.396       .  A
C1201      C1206   1.403       .  A
C1201      H1217   1.081       .  S
C1202      C1697   1.396       .  A
C1202      C1203   1.402       .  A
C1202      H1218   1.084       .  S
C1203      C1213   1.396       .  A
C1203      C1204   1.411       .  A
C1204      C1210   1.405       .  A
C1204      C1701   1.397       .  A
C1205      C1700   1.397       .  A
C1205      C1207   1.412       .  A
C1205      C1206   1.409       .  A
C1206      C1214   1.394       .  A
C1207      C1216   1.386       .  A
C1207      C1208   1.399       .  A
C1208      C1705   1.389       .  A
C1208      H1219   1.083       .  S
C1209      C1704   1.389       .  A
C1209      C1210   1.401       .  A
C1209      H1220   1.084       .  S
C1210      C1211   1.380       .  A
C1211      C1212   1.404       .  A
C1211      H1221   1.075       .  S
C1212      C1213   1.403       .  A
C1213      H1222   1.079       .  S
C1214      C1215   1.401       .  A
C1214      H1223   1.084       .  S
C1215      C1216   1.388       .  A
C1216      H1224   1.073       .  S
C1225      C1226   1.397       .  A
C1225      C1230   1.402       .  A
C1226      C1227   1.400   1_545  A
C1226      H1242   1.083       .  S
C1227      C1237   1.393       .  A
C1227      C1228   1.412       .  A
C1228      C1234   1.409       .  A
C1228      C1229   1.393       .  A
C1229      C1231   1.405       .  A
C1229      C1230   1.410   1_565  A
C1230      C1238   1.395       .  A
C1231      C1240   1.376       .  A
C1231      C1232   1.401       .  A
C1232      C1233   1.387       .  A
C1232      H1243   1.084       .  S
C1233      C1234   1.398       .  A
C1233      H1244   1.084       .  S
C1234      C1235   1.377       .  A
C1235      C1236   1.384       .  A
C1235      H1245   1.069       .  S
C1236      C1237   1.397       .  A
C1237      H1246   1.084       .  S
C1238      C1239   1.407       .  A
C1239      C1240   1.408   1_545  A
C1240      H1248   1.079       .  S
C1249      C1250   1.379       .  A
C1249      C1254   1.393       .  A
C1249      H1265   1.081       .  S
C1250      C1251   1.397       .  A
C1250      H1266   1.084       .  S
C1251      C1261   1.366       .  A
C1251      C1252   1.402       .  A
C1252      C1258   1.407       .  A
C1252      C1253   1.389       .  A
C1253      C1255   1.409       .  A
C1253      C1254   1.406       .  A
C1254      C1262   1.370       .  A
C1255      C1264   1.398       .  A
C1255      C1256   1.401       .  A
C1256      C1257   1.399       .  A
C1256      H1267   1.077       .  S
C1257      C1258   1.404       .  A
C1258      C1259   1.397       .  A
C1259      C1260   1.415       .  A
C1260      C1261   1.397       .  A
C1261      H1270   1.064       .  S
C1262      C1263   1.384       .  A
C1262      H1271   1.084       .  S
C1263      C1264   1.401       .  A
C1264      H1272   1.084       .  S
C1273      C1274   1.390       .  A
C1273      H1289   1.084       .  S
C1274      C1275   1.403       .  A
C1274      H1290   1.084       .  S
C1275      C1285   1.382       .  A
C1276      C1282   1.409       .  A
C1276      C1277   1.397       .  A
C1277      C1279   1.409       .  A
C1277      C1278   1.414   1_565  A
C1278      C1286   1.388       .  A
C1279      C1288   1.389       .  A
C1279      C1280   1.402       .  A
C1280      C1281   1.395       .  A
C1280      H1291   1.084       .  S
C1281      C1282   1.403       .  A
C1281      H1292   1.084       .  S
C1282      C1283   1.394       .  A
C1283      H1293   1.077       .  S
C1284      C1285   1.415       .  A
C1285      H1294   1.074       .  S
C1286      C1287   1.393   1_545  A
C1286      H1295   1.085       .  S
C1287      C1288   1.398       .  A
C1288      H1296   1.080       .  S
C1297      C1298   1.390       .  A
C1297      C1302   1.397       .  A
C1297      H1313   1.080       .  S
C1298      C1299   1.401       .  A
C1298      H1314   1.084       .  S
C1299      C1309   1.381       .  A
C1299      C1300   1.405       .  A
C1300      C1306   1.410       .  A
C1300      C1301   1.397       .  A
C1301      C1303   1.409       .  A
C1301      C1302   1.411       .  A
C1302      C1310   1.385       .  A
C1303      C1312   1.394       .  A
C1303      C1304   1.404       .  A
C1304      C1305   1.400       .  A
C1304      H1315   1.083       .  S
C1305      C1306   1.402       .  A
C1305      H1316   1.084       .  S
C1306      C1307   1.401       .  A
C1307      C1308   1.408       .  A
C1307      H1317   1.083       .  S
C1308      C1309   1.410       .  A
C1309      H1318   1.079       .  S
C1310      C1311   1.392       .  A
C1310      H1319   1.083       .  S
C1311      C1312   1.404       .  A
C1312      H1320   1.081       .  S
C1321      C1322   1.394       .  A
C1321      C1326   1.404       .  A
C1321      H1337   1.084       .  S
C1322      C1323   1.400       .  A
C1322      H1338   1.084       .  S
C1323      C1829   1.394       .  A
C1323      C1324   1.414       .  A
C1324      C1330   1.407       .  A
C1324      C1325   1.401       .  A
C1325      C1327   1.411       .  A
C1325      C1326   1.403       .  A
C1326      C1334   1.387       .  A
C1327      C1336   1.400       .  A
C1327      C1328   1.403       .  A
C1328      C1329   1.398       .  A
C1328      H1339   1.084       .  S
C1329      C1330   1.402       .  A
C1329      H1340   1.084       .  S
C1330      C1827   1.391       .  A
C1331      C1826   1.391       .  A
C1331      C1332   1.399   1_556  A
C1331      H1341   1.079       .  S
C1332      N3081   1.420       .  S
C1332      C1333   1.396       .  A
C1333      C1819   1.394   1_554  A
C1333      H3326   1.085       .  S
C1334      C1335   1.413       .  A
C1334      H1343   1.075       .  S
C1335      C1336   1.411       .  A
C1336      H1344   1.083       .  S
H1342      C3317   1.085       .  S
C1345      C1346   1.389       .  A
C1345      C1350   1.401       .  A
C1345      H1361   1.084       .  S
C1346      C1347   1.400       .  A
C1346      H1362   1.084       .  S
C1347      C1357   1.382       .  A
C1347      C1348   1.410       .  A
C1348      C1354   1.411       .  A
C1348      C1349   1.395       .  A
C1349      C1351   1.409       .  A
C1349      C1350   1.406       .  A
C1350      C1358   1.382       .  A
C1351      C1360   1.394       .  A
C1351      C1352   1.402       .  A
C1352      C1353   1.396       .  A
C1352      H1363   1.083       .  S
C1353      C1354   1.401       .  A
C1353      H1364   1.083       .  S
C1354      C1355   1.394       .  A
C1355      C1356   1.398       .  A
C1355      H1365   1.084       .  S
C1356      C1357   1.392       .  A
C1357      H1366   1.074       .  S
C1358      C1359   1.409       .  A
C1358      H1367   1.082       .  S
C1359      C1360   1.403       .  A
C1360      H1368   1.078       .  S
C1369      C1866   1.397       .  A
C1369      C1374   1.402       .  A
C1369      H1881   1.077       .  S
C1370      C1865   1.397       .  A
C1370      C1867   1.402       .  A
C1370      H1386   1.084       .  S
C1371      C1866   1.402       .  A
C1371      C1877   1.395       .  A
C1371      C1372   1.409       .  A
C1372      C1378   1.408       .  A
C1372      C1373   1.397       .  A
C1373      C1375   1.406       .  A
C1373      C1374   1.410       .  A
C1374      C1382   1.401       .  A
C1375      C1384   1.379       .  A
C1375      C1376   1.399       .  A
C1376      C1377   1.386       .  A
C1376      H1387   1.082       .  S
C1377      C1378   1.398       .  A
C1377      H1388   1.084       .  S
C1378      C1379   1.379   1_455  A
C1379      C3364   1.405       .  A
C1379      H3373   1.082       .  S
C1380      C3363   1.405       .  A
C1380      C3861   1.404       .  A
C1381      C1867   1.395       .  A
C1381      C3860   1.404   1_455  A
C1381      H3374   1.077       .  S
C1382      C1383   1.404       .  A
C1382      H1391   1.083       .  S
C1383      C1384   1.397       .  A
C1384      H1392   1.070       .  S
H1385      C1865   1.077       .  S
H1389      C3363   1.082       .  S
H1390      C3365   1.077       .  S
C1393      C1394   1.396       .  A
C1393      C3382   1.403       .  A
C1393      H1409   1.084       .  S
C1394      C1395   1.398       .  A
C1394      H1410   1.082   1_565  S
C1395      C1396   1.411       .  A
C1396      C3386   1.409   1_655  A
C1396      C3381   1.396       .  A
C1397      C3380   1.396       .  A
C1397      C1399   1.404       .  A
C1397      C1398   1.408       .  A
C1398      C3377   1.403       .  A
C1398      C1406   1.394       .  A
C1399      C1408   1.382       .  A
C1399      C1400   1.403       .  A
C1400      C1401   1.390       .  A
C1400      H1411   1.084       .  S
C1401      C1402   1.399       .  A
C1401      H1412   1.084       .  S
C1402      C3380   1.409       .  A
C1402      C3387   1.382       .  A
C1403      C3386   1.382       .  A
C1403      H1413   1.074       .  S
C1404      C1405   1.394   1_455  A
C1405      H1414   1.085       .  S
C1406      C1407   1.410       .  A
C1406      H1415   1.079       .  S
C1407      C1408   1.414       .  A
C1408      H1416   1.078       .  S
C1417      C1418   1.394       .  A
C1417      C3406   1.402       .  A
C1417      H1433   1.084       .  S
C1418      C1419   1.400       .  A
C1418      H1434   1.079       .  S
C1419      C1429   1.394       .  A
C1419      C1420   1.412       .  A
C1420      C1426   1.409       .  A
C1420      C3405   1.394       .  A
C1421      C3404   1.394   1_455  A
C1421      C1423   1.406       .  A
C1421      C1422   1.409       .  A
C1422      C3401   1.402   1_455  A
C1422      C1430   1.392       .  A
C1423      C1432   1.378       .  A
C1423      C1424   1.400       .  A
C1424      C1425   1.386       .  A
C1424      H1435   1.084       .  S
C1425      C3410   1.398   1_455  A
C1425      H1436   1.084       .  S
C1426      C3409   1.398       .  A
C1426      C1427   1.376       .  A
C1427      C1428   1.384       .  A
C1427      H1437   1.068       .  S
C1428      C1429   1.397       .  A
C1429      H1438   1.084       .  S
C1430      C1431   1.406       .  A
C1430      H1439   1.080       .  S
C1431      C1432   1.408       .  A
C1432      H1440   1.079       .  S
C1441      C1442   1.383       .  A
C1441      C1446   1.399       .  A
C1441      H1457   1.084       .  S
C1442      C1443   1.396       .  A
C1442      H1458   1.080       .  S
C1443      C1453   1.378       .  A
C1443      C1444   1.408       .  A
C1444      C1450   1.408       .  A
C1444      C1445   1.393       .  A
C1445      C1447   1.409       .  A
C1445      C1446   1.402       .  A
C1446      C1454   1.373       .  A
C1447      C1456   1.396       .  A
C1447      C1448   1.403       .  A
C1448      C1449   1.397       .  A
C1448      H1459   1.084       .  S
C1449      C1450   1.400       .  A
C1449      H1460   1.080       .  S
C1450      C1451   1.393       .  A
C1451      C1452   1.399       .  A
C1451      H1461   1.082       .  S
C1452      C1453   1.390       .  A
C1453      H1462   1.084   1_455  S
C1454      C1455   1.400       .  A
C1454      H1463   1.061       .  S
C1455      C1456   1.412       .  A
C1456      H1464   1.079       .  S
C1465      C1466   1.398       .  A
C1465      C1470   1.402       .  A
C1465      H1481   1.084       .  S
C1466      C1467   1.404       .  A
C1466      H1482   1.079       .  S
C1467      C1477   1.401       .  A
C1467      C1468   1.409       .  A
C1468      C1474   1.407       .  A
C1468      C1469   1.399       .  A
C1469      C1471   1.407       .  A
C1469      C1470   1.411       .  A
C1470      C1478   1.399       .  A
C1471      C1480   1.381       .  A
C1471      C1472   1.399       .  A
C1472      C1473   1.387       .  A
C1472      H1483   1.084       .  S
C1473      C1474   1.398       .  A
C1473      H1484   1.081       .  S
C1474      C1475   1.382       .  A
C1475      C1476   1.397       .  A
C1475      H1485   1.072       .  S
C1476      C1477   1.406       .  A
C1477      H1486   1.083       .  S
C1478      C1479   1.405       .  A
C1478      H1487   1.080       .  S
C1479      C1480   1.403       .  A
C1480      H1488   1.078       .  S
N1489      C1493   1.379       .  A
N1489      C1490   1.372       .  A
N1489      C1972   1.434       .  S
C1490      C1491   1.388       .  A
C1490      C1628   1.537       .  S
C1491      C1492   1.390       .  A
C1492      C1493   1.383       .  A
C1493      C1586   1.521       .  S
N1496      C3484   1.365   1_455  A
N1496      C1497   1.361       .  A
N1496      C1948   1.414       .  S
C1497      C1572   1.534       .  S
C1498      C3483   1.396   1_455  A
C1498      H1501   1.081       .  S
C1499      C3482   1.396       .  A
C1499      H1502   1.082       .  S
C1500      N3480   1.365       .  A
C1500      C1694   1.512       .  S
N1503      C1507   1.362       .  A
N1503      C1504   1.359       .  A
N1503      C1924   1.409       .  S
C1504      C1505   1.388       .  A
C1504      C1691   1.532       .  S
C1505      C1506   1.397       .  A
C1505      H1508   1.082       .  S
C1506      C1507   1.382       .  A
C1506      H1509   1.079       .  S
C1507      C1643   1.513       .  S
C1510      C1511   1.403       .  A
C1510      C1515   1.383       .  A
C1510      C1975   1.473       .  S
C1511      C1512   1.401       .  A
C1511      H1516   1.079       .  S
C1512      C1513   1.405       .  A
C1512      C1951   1.485       .  S
C1513      C1514   1.389       .  A
C1513      H1517   1.075       .  S
C1514      C1515   1.395       .  A
C1514      C1927   1.478       .  S
C1515      H1518   1.078       .  S
O1519      C1534   1.256       .  A
O1519     Al1527   1.875       .  S
C1520      C1556   1.539       .  S
C1520      O1530   1.267       .  A
C1520      O1521   1.285       .  A
O1521     Al1523   2.033       .  S
O1522      C1524   1.268       .  A
O1522     Al1523   1.906       .  S
Al1523     O1531   1.889       .  S
Al1523     O1533   2.019       .  S
Al1523     O1532   1.793       .  S
C1524      C1660   1.523       .  S
C1524      O1537   1.279       .  A
O1525      C1535   1.264       .  A
O1525     Al1527   1.897       .  S
O1526      C1539   1.264       .  A
O1526     Al1536   1.893       .  S
Al1527     O1540   2.008       .  S
Al1527     O1537   2.001       .  S
Al1527     O1532   1.786       .  S
O1528      C1535   1.282       .  A
O1528     Al1536   2.014       .  S
O1529      C1538   1.283       .  A
O1529     Al1536   2.020       .  S
O1530     Al1536   1.908       .  S
O1531      C1538   1.259       .  A
O1532     Al1536   1.795       .  S
O1533      C1534   1.280       .  A
C1534      C1552   1.519       .  S
C1535      C1608   1.519       .  S
C1538      C1604   1.520       .  S
C1539      C1656   1.518       .  S
C1539      O1540   1.279       .  A
N1541      C1545   1.366       .  A
N1541      C1542   1.361       .  A
N1541      C1900   1.408       .  S
C1542      C1543   1.387       .  A
C1542      C3664   1.536       .  S
C1543      C1544   1.397       .  A
C1543      H1546   1.082       .  S
C1544      C1545   1.385       .  A
C1544      H1547   1.077       .  S
C1545      C1591   1.524       .  S
N1548      C1552   1.378       .  A
N1548      C1549   1.375       .  A
N1548      C1879   1.433       .  S
C1549      C1550   1.389       .  A
C1549      C1576   1.541       .  S
C1550      C1551   1.390       .  A
C1550      H1553   1.082       .  S
C1551      C1552   1.382       .  A
C1551      H1554   1.082       .  S
N1555      C1559   1.371       .  A
N1555      C1556   1.365       .  A
N1555      C1852   1.418       .  S
C1556      C1557   1.388       .  A
C1557      C1558   1.396       .  A
C1557      H1560   1.082       .  S
C1558      C1559   1.383       .  A
C1558      H1561   1.081       .  S
C1559      C1695   1.521       .  S
C1562      C1563   1.397       .  A
C1562      C1567   1.397       .  A
C1562      C1903   1.492       .  S
C1563      H1568   1.074       .  S
C1564      C1565   1.396       .  A
C1564      C1855   1.476   1_554  S
C1565      C1566   1.397       .  A
C1565      H1569   1.080   1_554  S
C1566      C1876   1.472       .  S
C1567      H1570   1.077       .  S
O1571      C1586   1.257       .  A
O1571     Al1579   1.874       .  S
C1572      O1582   1.266       .  A
C1572      O1573   1.285       .  A
O1573     Al1575   2.028       .  S
O1574      C1576   1.270       .  A
O1574     Al1575   1.913       .  S
Al1575     O1583   1.886       .  S
Al1575     O1585   2.022       .  S
O1577      C1587   1.265       .  A
O1577     Al1579   1.904       .  S
O1578      C1591   1.262       .  A
O1578     Al1588   1.891       .  S
Al1579     O1592   2.020       .  S
Al1579     O1589   2.015       .  S
Al1579     O1584   1.791       .  S
O1580      C1587   1.279       .  A
O1580     Al1588   2.001       .  S
O1581      C1590   1.277       .  A
O1584     Al1588   1.799       .  S
C1587      C1594   1.514       .  S
C1591      O1592   1.282       .  A
N1593      C3581   1.367       .  A
N1593      C1594   1.356   1_655  A
N1593      C3812   1.420       .  S
C1594      C1595   1.386       .  A
C1595      C1596   1.389   1_455  A
C1595      H1598   1.081       .  S
C1596      C3581   1.384       .  A
C1596      H1599   1.082       .  S
C1597      N3577   1.367       .  A
C1597      C3580   1.384       .  A
C1597      C1642   1.505       .  S
N1600      C1604   1.374       .  A
N1600      C1601   1.361       .  A
N1600      C1807   1.420       .  S
C1601      C1602   1.386       .  A
C1601      C1639   1.523       .  S
C1602      C1603   1.390       .  A
C1602      H1605   1.080       .  S
C1603      C1604   1.383       .  A
C1603      H1606   1.082       .  S
N1607      C1611   1.362       .  A
N1607      C1608   1.357       .  A
N1607      C1783   1.413       .  S
C1608      C1609   1.386       .  A
C1609      C1610   1.391       .  A
C1609      H1612   1.082       .  S
C1610      C1611   1.385       .  A
C1610      H1613   1.081       .  S
C1614      C1615   1.407       .  A
C1614      C1619   1.412       .  A
C1614      C1831   1.493       .  S
C1615      C1616   1.399       .  A
C1615      H1620   1.081       .  S
C1616      C1617   1.382       .  A
C1616      C1804   1.492       .  S
C1617      C1618   1.399       .  A
C1617      H1621   1.078       .  S
C1618      C1619   1.406       .  A
C1618      C1780   1.503       .  S
C1619      H1622   1.079       .  S
O1623      C1638   1.262       .  A
O1623     Al1631   1.888       .  S
C1624      C1646   1.541       .  S
C1624      O1634   1.266       .  A
C1624      O1625   1.287       .  A
O1625     Al1627   2.038       .  S
O1626      C1628   1.270       .  A
O1626     Al1627   1.907       .  S
Al1627     O1635   1.875       .  S
Al1627     O1637   2.005       .  S
Al1627     O1636   1.799       .  S
C1628      O1641   1.277       .  A
O1629      C1639   1.268       .  A
O1629     Al1631   1.918       .  S
O1630      C1643   1.263       .  A
O1630     Al1640   1.885       .  S
Al1631     O1644   1.997       .  S
Al1631     O1641   1.999       .  S
Al1631     O1636   1.798       .  S
O1632      C1639   1.281       .  A
O1632     Al1640   2.006       .  S
O1633      C1642   1.280       .  A
O1633     Al1640   2.002       .  S
O1634     Al1640   1.897       .  S
O1635      C1642   1.258       .  A
O1636     Al1640   1.798       .  S
O1637      C1638   1.281       .  A
C1643      O1644   1.277       .  A
N1645      C1649   1.360       .  A
N1645      C1646   1.363       .  A
N1645      C1759   1.409       .  S
C1646      C1647   1.388       .  A
C1647      C1648   1.398       .  A
C1647      H1650   1.082       .  S
C1648      C1649   1.385       .  A
C1648      H1651   1.082       .  S
C1649      C1690   1.510       .  S
N1652      C1656   1.362       .  A
N1652      C1653   1.357       .  A
N1652      C1732   1.407       .  S
C1653      C1654   1.388       .  A
C1653      C3660   1.529       .  S
C1654      C1655   1.398       .  A
C1654      H3641   1.082       .  S
C1655      C1656   1.385       .  A
C1655      H1658   1.079       .  S
H1657      C3638   1.082       .  S
N1659      C1663   1.366       .  A
N1659      C1660   1.358       .  A
N1659      C1711   1.417   1_556  S
C1660      C1661   1.384       .  A
C1661      C1662   1.393       .  A
C1661      H1664   1.078       .  S
C1662      C1663   1.383       .  A
C1662      H1665   1.082       .  S
C1666      C1667   1.386       .  A
C1666      C1671   1.401   1_565  A
C1666      C1708   1.474       .  S
C1667      C1668   1.394   1_565  A
C1667      H1672   1.080       .  S
C1668      C1735   1.477       .  S
C1669      C1670   1.409       .  A
C1669      H1673   1.075       .  S
C1670      C1756   1.483       .  S
C1671      H1674   1.080       .  S
O1675      C1690   1.262       .  A
O1675     Al1683   1.897       .  S
C1676      C3637   1.529       .  S
C1676      O1686   1.270       .  A
C1676      O1677   1.280       .  A
O1678      C1680   1.270       .  A
O1678     Al1679   1.914       .  S
Al1679     O1687   1.896       .  S
Al1679     O1689   1.985       .  S
C1680      C3526   1.536       .  S
C1680      O1693   1.288       .  A
O1681      C1691   1.267       .  A
O1682      C1695   1.258       .  A
O1682     Al1692   1.869       .  S
Al1683     O1693   2.036       .  S
O1684      C1691   1.282       .  A
O1684     Al1692   2.016       .  S
O1685     Al1692   2.007       .  S
O1686     Al1692   1.913       .  S
O1687      C1694   1.261       .  A
O1688     Al1692   1.796       .  S
O1689      C1690   1.274       .  A
C1695      O1696   1.283       .  A
C1697      C1702   1.403       .  A
C1697      H1713   1.081   1_554  S
C1698      C1699   1.402       .  A
C1698      H1714   1.084       .  S
C1699      C1709   1.396       .  A
C1699      C1700   1.411       .  A
C1700      C1706   1.405       .  A
C1701      C1703   1.412       .  A
C1701      C1702   1.409       .  A
C1702      C1710   1.394       .  A
C1703      C1712   1.386       .  A
C1703      C1704   1.399       .  A
C1704      H1715   1.083       .  S
C1705      C1706   1.401       .  A
C1705      H1716   1.084       .  S
C1706      C1707   1.380       .  A
C1707      C1708   1.404       .  A
C1707      H1717   1.075       .  S
C1708      C1709   1.403       .  A
C1709      H1718   1.079       .  S
C1710      C1711   1.401       .  A
C1710      H1719   1.084   1_554  S
C1711      C1712   1.388       .  A
C1712      H1720   1.073       .  S
C1721      C1722   1.397       .  A
C1721      C1726   1.402       .  A
C1722      C1723   1.400   1_545  A
C1722      H1738   1.083       .  S
C1723      C1733   1.393       .  A
C1723      C1724   1.412       .  A
C1724      C1730   1.409       .  A
C1724      C1725   1.393       .  A
C1725      C1727   1.405       .  A
C1725      C1726   1.410   1_565  A
C1726      C1734   1.395       .  A
C1727      C1736   1.376       .  A
C1727      C1728   1.401       .  A
C1728      C1729   1.387       .  A
C1728      H1739   1.084       .  S
C1729      C1730   1.398       .  A
C1729      H1740   1.084       .  S
C1730      C1731   1.377       .  A
C1731      C1732   1.384       .  A
C1731      H1741   1.069       .  S
C1732      C1733   1.397       .  A
C1733      H1742   1.084       .  S
C1734      C1735   1.407       .  A
C1735      C1736   1.408   1_545  A
C1736      H1744   1.079       .  S
C1745      C1746   1.379       .  A
C1745      C1750   1.393       .  A
C1745      H1761   1.081       .  S
C1746      C1747   1.397       .  A
C1746      H1762   1.084       .  S
C1747      C1757   1.366       .  A
C1747      C1748   1.402       .  A
C1748      C1754   1.407       .  A
C1748      C1749   1.389       .  A
C1749      C1751   1.409       .  A
C1749      C1750   1.406       .  A
C1750      C1758   1.370       .  A
C1751      C1760   1.398       .  A
C1751      C1752   1.401       .  A
C1752      C1753   1.399       .  A
C1752      H1763   1.077       .  S
C1753      C1754   1.404       .  A
C1754      C1755   1.397       .  A
C1755      C1756   1.415       .  A
C1756      C1757   1.397       .  A
C1757      H1766   1.064       .  S
C1758      C1759   1.384       .  A
C1758      H1767   1.084       .  S
C1759      C1760   1.401       .  A
C1760      H1768   1.084       .  S
C1769      C1770   1.390       .  A
C1769      H1785   1.084       .  S
C1770      C1771   1.403       .  A
C1770      H1786   1.084       .  S
C1771      C1781   1.382       .  A
C1772      C1778   1.409       .  A
C1772      C1773   1.397       .  A
C1773      C1775   1.409       .  A
C1773      C1774   1.414   1_565  A
C1774      C1782   1.388       .  A
C1775      C1784   1.389       .  A
C1775      C1776   1.402       .  A
C1776      C1777   1.395       .  A
C1776      H1787   1.084       .  S
C1777      C1778   1.403       .  A
C1777      H1788   1.084       .  S
C1778      C1779   1.394       .  A
C1779      H1789   1.077       .  S
C1780      C1781   1.415       .  A
C1781      H1790   1.074       .  S
C1782      C1783   1.393   1_545  A
C1782      H1791   1.085       .  S
C1783      C1784   1.398       .  A
C1784      H1792   1.080       .  S
C1793      C1794   1.390       .  A
C1793      C1798   1.397       .  A
C1793      H1809   1.080       .  S
C1794      C1795   1.401       .  A
C1794      H1810   1.084       .  S
C1795      C1805   1.381       .  A
C1795      C1796   1.405       .  A
C1796      C1802   1.410       .  A
C1796      C1797   1.397       .  A
C1797      C1799   1.409       .  A
C1797      C1798   1.411       .  A
C1798      C1806   1.385       .  A
C1799      C1808   1.394       .  A
C1799      C1800   1.404       .  A
C1800      C1801   1.400       .  A
C1800      H1811   1.083       .  S
C1801      C1802   1.402       .  A
C1801      H1812   1.084       .  S
C1802      C1803   1.401       .  A
C1803      C1804   1.408       .  A
C1803      H1813   1.083       .  S
C1804      C1805   1.410       .  A
C1805      H1814   1.079       .  S
C1806      C1807   1.392       .  A
C1806      H1815   1.083       .  S
C1807      C1808   1.404       .  A
C1808      H1816   1.081       .  S
C1817      C1818   1.394       .  A
C1817      C1822   1.404       .  A
C1817      H1833   1.084       .  S
C1818      C1819   1.400       .  A
C1818      H1834   1.084   1_556  S
C1819      C1820   1.414       .  A
C1820      C1826   1.407       .  A
C1820      C1821   1.401       .  A
C1821      C1823   1.411       .  A
C1821      C1822   1.403       .  A
C1822      C1830   1.387       .  A
C1823      C1832   1.400       .  A
C1823      C1824   1.403       .  A
C1824      C1825   1.398       .  A
C1824      H1835   1.084       .  S
C1825      C1826   1.402       .  A
C1825      H1836   1.084       .  S
C1827      C1828   1.399       .  A
C1827      H1837   1.079       .  S
C1828      N3577   1.420       .  S
C1828      C1829   1.396       .  A
C1829      H3822   1.085       .  S
C1830      C1831   1.413       .  A
C1830      H1839   1.075       .  S
C1831      C1832   1.411       .  A
C1832      H1840   1.083       .  S
H1838      C3813   1.085       .  S
C1841      C1842   1.389       .  A
C1841      C1846   1.401       .  A
C1841      H1857   1.084       .  S
C1842      C1843   1.400       .  A
C1842      H1858   1.084       .  S
C1843      C1853   1.382       .  A
C1843      C1844   1.410       .  A
C1844      C1850   1.411       .  A
C1844      C1845   1.395       .  A
C1845      C1847   1.409       .  A
C1845      C1846   1.406       .  A
C1846      C1854   1.382       .  A
C1847      C1856   1.394       .  A
C1847      C1848   1.402       .  A
C1848      C1849   1.396       .  A
C1848      H1859   1.083       .  S
C1849      C1850   1.401       .  A
C1849      H1860   1.083       .  S
C1850      C1851   1.394       .  A
C1851      C1852   1.398       .  A
C1851      H1861   1.084       .  S
C1852      C1853   1.392       .  A
C1853      H1862   1.074       .  S
C1854      C1855   1.409       .  A
C1854      H1863   1.082       .  S
C1855      C1856   1.403       .  A
C1856      H1864   1.078       .  S
C1865      C1870   1.402   1_554  A
C1866      H1882   1.084       .  S
C1867      C1868   1.409   1_554  A
C1868      C1874   1.408       .  A
C1868      C1869   1.397       .  A
C1869      C1871   1.406       .  A
C1869      C1870   1.410       .  A
C1870      C1878   1.401       .  A
C1871      C1880   1.379       .  A
C1871      C1872   1.399       .  A
C1872      C1873   1.386       .  A
C1872      H1883   1.082       .  S
C1873      C1874   1.398       .  A
C1873      H1884   1.084       .  S
C1874      C1875   1.379   1_455  A
C1875      C3860   1.405   1_556  A
C1875      H3869   1.082       .  S
C1876      C3859   1.405   1_554  A
C1876      C3365   1.404       .  A
C1877      C3364   1.404   1_455  A
C1877      H3870   1.077       .  S
C1878      C1879   1.404       .  A
C1878      H1887   1.083       .  S
C1879      C1880   1.397       .  A
C1880      H1888   1.070       .  S
H1885      C3859   1.082       .  S
H1886      C3861   1.077       .  S
C1889      C1890   1.396       .  A
C1889      C3878   1.403       .  A
C1889      H1905   1.084       .  S
C1890      C1891   1.398       .  A
C1890      H1906   1.082   1_565  S
C1891      C1892   1.411       .  A
C1892      C3882   1.409   1_655  A
C1892      C3877   1.396       .  A
C1893      C3876   1.396       .  A
C1893      C1895   1.404       .  A
C1893      C1894   1.408       .  A
C1894      C3873   1.403       .  A
C1894      C1902   1.394       .  A
C1895      C1904   1.382       .  A
C1895      C1896   1.403       .  A
C1896      C1897   1.390       .  A
C1896      H1907   1.084       .  S
C1897      C1898   1.399       .  A
C1897      H1908   1.084       .  S
C1898      C3876   1.409       .  A
C1898      C3883   1.382       .  A
C1899      C3882   1.382       .  A
C1899      H1909   1.074       .  S
C1900      C1901   1.394   1_455  A
C1901      H1910   1.085       .  S
C1902      C1903   1.410       .  A
C1902      H1911   1.079       .  S
C1903      C1904   1.414       .  A
C1904      H1912   1.078       .  S
C1913      C1914   1.394       .  A
C1913      C3902   1.402       .  A
C1913      H1929   1.084       .  S
C1914      C1915   1.400       .  A
C1914      H1930   1.079       .  S
C1915      C1925   1.394       .  A
C1915      C1916   1.412       .  A
C1916      C1922   1.409       .  A
C1916      C3901   1.394       .  A
C1917      C3900   1.394   1_455  A
C1917      C1919   1.406       .  A
C1917      C1918   1.409       .  A
C1918      C3897   1.402   1_455  A
C1918      C1926   1.392       .  A
C1919      C1928   1.378       .  A
C1919      C1920   1.400       .  A
C1920      C1921   1.386       .  A
C1920      H1931   1.084       .  S
C1921      C3906   1.398   1_455  A
C1921      H1932   1.084       .  S
C1922      C3905   1.398       .  A
C1922      C1923   1.376       .  A
C1923      C1924   1.384       .  A
C1923      H1933   1.068       .  S
C1924      C1925   1.397       .  A
C1925      H1934   1.084       .  S
C1926      C1927   1.406       .  A
C1926      H1935   1.080       .  S
C1927      C1928   1.408       .  A
C1928      H1936   1.079       .  S
C1937      C1938   1.383       .  A
C1937      C1942   1.399       .  A
C1937      H1953   1.084       .  S
C1938      C1939   1.396       .  A
C1938      H1954   1.080       .  S
C1939      C1949   1.378       .  A
C1939      C1940   1.408       .  A
C1940      C1946   1.408       .  A
C1940      C1941   1.393       .  A
C1941      C1943   1.409       .  A
C1941      C1942   1.402       .  A
C1942      C1950   1.373       .  A
C1943      C1952   1.396       .  A
C1943      C1944   1.403       .  A
C1944      C1945   1.397       .  A
C1944      H1955   1.084       .  S
C1945      C1946   1.400       .  A
C1945      H1956   1.080       .  S
C1946      C1947   1.393       .  A
C1947      C1948   1.399       .  A
C1947      H1957   1.082       .  S
C1948      C1949   1.390       .  A
C1949      H1958   1.084   1_455  S
C1950      C1951   1.400       .  A
C1950      H1959   1.061       .  S
C1951      C1952   1.412       .  A
C1952      H1960   1.079       .  S
C1961      C1962   1.398       .  A
C1961      C1966   1.402       .  A
C1961      H1977   1.084       .  S
C1962      C1963   1.404       .  A
C1962      H1978   1.079       .  S
C1963      C1973   1.401       .  A
C1963      C1964   1.409       .  A
C1964      C1970   1.407       .  A
C1964      C1965   1.399       .  A
C1965      C1967   1.407       .  A
C1965      C1966   1.411       .  A
C1966      C1974   1.399       .  A
C1967      C1976   1.381       .  A
C1967      C1968   1.399       .  A
C1968      C1969   1.387       .  A
C1968      H1979   1.084       .  S
C1969      C1970   1.398       .  A
C1969      H1980   1.081       .  S
C1970      C1971   1.382       .  A
C1971      C1972   1.397       .  A
C1971      H1981   1.072       .  S
C1972      C1973   1.406       .  A
C1973      H1982   1.083       .  S
C1974      C1975   1.405       .  A
C1974      H1983   1.080       .  S
C1975      C1976   1.403       .  A
C1976      H1984   1.078       .  S
N1985      C1989   1.380       .  A
N1985      C1986   1.372       .  A
N1985      C2468   1.434       .  S
C1986      C1987   1.388       .  A
C1986      C2124   1.537       .  S
C1987      C1988   1.390   1_554  A
C1987      H2486   1.082       .  S
C1988      C1989   1.383   1_556  A
C1988      H2487   1.082       .  S
C1989      C2082   1.521       .  S
H1990      C2483   1.082       .  S
H1991      C2484   1.082       .  S
N1992      C1993   1.361       .  A
N1992      C2444   1.414       .  S
C1993      C2986   1.386   1_545  A
C1993      C2068   1.534       .  S
C1994      C2985   1.386       .  A
C1994      H1997   1.081       .  S
C1995      C2988   1.386       .  A
C1995      H1998   1.082       .  S
C1996      C2987   1.386       .  A
C1996      C2190   1.512       .  S
N1999      C2003   1.362       .  A
N1999      C2000   1.359       .  A
N1999      C2420   1.409       .  S
C2000      C2001   1.388       .  A
C2000      C2187   1.532       .  S
C2001      C2002   1.397       .  A
C2001      H2004   1.082       .  S
C2002      C2003   1.382       .  A
C2002      H2005   1.079       .  S
C2003      C2139   1.513       .  S
C2006      C2007   1.403       .  A
C2006      C2011   1.383       .  A
C2006      C2471   1.473       .  S
C2007      C2008   1.401       .  A
C2007      H2012   1.079       .  S
C2008      C2009   1.405       .  A
C2008      C2447   1.485       .  S
C2009      C2010   1.389       .  A
C2009      H2013   1.075       .  S
C2010      C2011   1.396       .  A
C2010      C2423   1.478       .  S
C2011      H2014   1.078       .  S
O2015      C2030   1.256       .  A
O2015     Al2023   1.875       .  S
C2016      C2052   1.539       .  S
C2016      O2026   1.267       .  A
C2016      O2017   1.285       .  A
O2017     Al2019   2.033       .  S
O2018      C2020   1.268       .  A
O2018     Al2019   1.906       .  S
Al2019     O2027   1.889       .  S
Al2019     O2029   2.019       .  S
Al2019     O2028   1.793       .  S
C2020      C2156   1.522       .  S
C2020      O2033   1.279       .  A
O2021      C2031   1.264       .  A
O2021     Al2023   1.897       .  S
O2022      C2035   1.264       .  A
O2022     Al2032   1.893       .  S
Al2023     O2036   2.007       .  S
Al2023     O2033   2.001       .  S
Al2023     O2028   1.786       .  S
O2024      C2031   1.282       .  A
O2024     Al2032   2.014       .  S
O2025      C2034   1.283       .  A
O2025     Al2032   2.019       .  S
O2026     Al2032   1.908       .  S
O2027      C2034   1.259       .  A
O2028     Al2032   1.795       .  S
O2029      C2030   1.280       .  A
C2030      C2048   1.519       .  S
C2031      C2104   1.519       .  S
C2034      C2100   1.520       .  S
C2035      C2152   1.518       .  S
C2035      O2036   1.279       .  A
N2037      C2041   1.366       .  A
N2037      C2038   1.361       .  A
N2037      C2396   1.408       .  S
C2038      C2039   1.387       .  A
C2039      C2040   1.397       .  A
C2039      H2042   1.082       .  S
C2040      C2041   1.385       .  A
C2040      H2043   1.077       .  S
C2041      C2087   1.523       .  S
N2044      C2048   1.378       .  A
N2044      C2045   1.375       .  A
N2044      C2375   1.433       .  S
C2045      C2046   1.389       .  A
C2045      C2072   1.540       .  S
C2046      C2047   1.390       .  A
C2046      H2049   1.082       .  S
C2047      C2048   1.382       .  A
C2047      H2050   1.082       .  S
N2051      C2055   1.371       .  A
N2051      C2052   1.365       .  A
N2051      C2348   1.418       .  S
C2052      C2053   1.388       .  A
C2053      C2054   1.396       .  A
C2053      H2056   1.082       .  S
C2054      C2055   1.383       .  A
C2054      H2057   1.081       .  S
C2055      C2191   1.521       .  S
C2058      C2059   1.397       .  A
C2058      C2063   1.397       .  A
C2058      C2399   1.492       .  S
C2059      C2556   1.402       .  A
C2059      H2064   1.074       .  S
C2060      C2555   1.402       .  A
C2060      C2061   1.396       .  A
C2060      C2351   1.476       .  S
C2061      C2062   1.398       .  A
C2061      H2065   1.080       .  S
C2062      C2559   1.383       .  A
C2062      C2372   1.472       .  S
C2063      C2558   1.383       .  A
C2063      H2066   1.077       .  S
O2067      C2082   1.257       .  A
O2067     Al2075   1.875       .  S
C2068      O2078   1.266       .  A
C2068      O2069   1.285       .  A
O2069     Al2071   2.028       .  S
O2070      C2072   1.270       .  A
O2070     Al2071   1.913       .  S
Al2071     O2079   1.886       .  S
Al2071     O2081   2.022       .  S
Al2071     O2576   1.797       .  S
C2072      O2581   1.279       .  A
O2073      C2083   1.265       .  A
O2073     Al2075   1.904       .  S
O2074      C2087   1.262       .  A
O2074     Al2084   1.891   1_554  S
Al2075     O2088   2.019       .  S
Al2075     O2085   2.015   1_554  S
Al2075     O2080   1.791   1_554  S
O2076      C2083   1.279       .  A
O2076     Al2084   2.000   1_554  S
O2077      C2086   1.277       .  A
O2077     Al3076   1.988       .  S
O2078     Al2580   1.901       .  S
O2079      C3574   1.262       .  A
O2080     Al2567   1.797       .  S
O2080     Al2084   1.799       .  S
O2081      C2578   1.282       .  A
C2082      O2577   1.282   1_554  A
C2083      C2090   1.514       .  S
Al2084     O3069   1.988       .  S
Al2084     O2574   1.901       .  S
O2085      C2568   1.279       .  A
C2086      C2603   1.505       .  S
C2086      O3567   1.263       .  A
C2087      O2088   1.282       .  A
N2089      C2090   1.356       .  A
C2090      C2091   1.386       .  A
C2091      C2092   1.389       .  A
C2091      H2094   1.081       .  S
C2092      H2095   1.082       .  S
C2093      C2138   1.505       .  S
N2096      C2100   1.374       .  A
N2096      C2097   1.361       .  A
N2096      C2303   1.420       .  S
C2097      C2098   1.386       .  A
C2097      C2135   1.523       .  S
C2098      C2099   1.389       .  A
C2098      H2101   1.080       .  S
C2099      C2100   1.383       .  A
C2099      H2102   1.082       .  S
N2103      C2107   1.362       .  A
N2103      C2104   1.357       .  A
N2103      C2279   1.413       .  S
C2104      C2105   1.386       .  A
C2105      C2106   1.391       .  A
C2105      H2108   1.082       .  S
C2106      C2107   1.385       .  A
C2106      H2109   1.081       .  S
C2107      C2582   1.505       .  S
C2110      C2111   1.407       .  A
C2110      C2115   1.412       .  A
C2110      C2327   1.493       .  S
C2111      C2112   1.399       .  A
C2111      H2116   1.081       .  S
C2112      C2113   1.382       .  A
C2112      C2300   1.492       .  S
C2113      C2114   1.399       .  A
C2113      H2117   1.078       .  S
C2114      C2115   1.406       .  A
C2114      C2276   1.503   1_545  S
C2115      H2118   1.079       .  S
O2119      C2134   1.262       .  A
O2119     Al2127   1.888       .  S
C2120      C2142   1.541       .  S
C2120      O2130   1.266       .  A
C2120      O2121   1.287       .  A
O2121     Al2123   2.038       .  S
O2122      C2124   1.270       .  A
O2122     Al2123   1.907       .  S
Al2123     O2131   1.875       .  S
Al2123     O2133   2.004       .  S
Al2123     O2132   1.799       .  S
C2124      O2137   1.277       .  A
O2125      C2135   1.268       .  A
O2125     Al2127   1.918       .  S
O2126      C2139   1.263       .  A
O2126     Al2136   1.884       .  S
Al2127     O2140   1.997       .  S
Al2127     O2137   1.999       .  S
Al2127     O2132   1.798       .  S
O2128      C2135   1.281       .  A
O2128     Al2136   2.006       .  S
O2129      C2138   1.280       .  A
O2129     Al2136   2.002       .  S
O2130     Al2136   1.897       .  S
O2131      C2138   1.258       .  A
O2132     Al2136   1.798       .  S
O2133      C2134   1.280       .  A
C2134      C2655   1.510   1_554  S
C2139      O2140   1.277       .  A
N2141      C2145   1.360       .  A
N2141      C2142   1.363       .  A
N2141      C2255   1.409       .  S
C2142      C2143   1.388       .  A
C2143      C2144   1.397       .  A
C2143      H2146   1.082       .  S
C2144      C2145   1.385       .  A
C2144      H2147   1.082       .  S
C2145      C2186   1.509       .  S
N2148      C2152   1.362       .  A
N2148      C2149   1.357       .  A
N2148      C2228   1.407       .  S
C2149      C2150   1.388       .  A
C2150      C2151   1.398       .  A
C2151      C2152   1.385       .  A
C2151      H2154   1.079       .  S
N2155      C2159   1.366       .  A
N2155      C2156   1.358       .  A
N2155      C2207   1.417       .  S
C2156      C2157   1.384       .  A
C2157      C2158   1.393       .  A
C2157      H2160   1.078       .  S
C2158      C2159   1.383       .  A
C2158      H2161   1.082       .  S
C2159      C2630   1.510       .  S
C2162      C2163   1.386       .  A
C2162      C2167   1.401       .  A
C2162      C2204   1.474       .  S
C2163      C2164   1.394       .  A
C2163      H2168   1.080       .  S
C2164      C3157   1.387       .  A
C2164      C2231   1.477       .  S
C2165      C3156   1.387       .  A
C2165      C2166   1.409       .  A
C2165      H2169   1.075       .  S
C2166      C3159   1.399       .  A
C2166      C2252   1.483       .  S
C2167      C3158   1.400       .  A
C2167      H2170   1.080       .  S
O2171      C2186   1.262       .  A
O2171     Al2179   1.897   1_545  S
C2172      O2182   1.269       .  A
C2172      O2173   1.280       .  A
O2173     Al3167   2.014       .  S
O2174      C2176   1.270   1_565  A
O2174     Al2175   1.914       .  S
Al2175     O3165   2.014       .  S
Al2175     O2183   1.896   1_465  S
Al2175     O2185   1.985   1_465  S
Al2175     O3176   1.794   1_455  S
C2176      O2189   1.288   1_445  A
O2177      C2187   1.267       .  A
O2177     Al3171   1.903       .  S
O2178      C2191   1.258       .  A
O2178     Al2188   1.870       .  S
Al2179     O3169   1.903       .  S
Al2179     O3184   2.026       .  S
Al2179     O2189   2.036       .  S
Al2179     O3176   1.794       .  S
O2180      C2187   1.282       .  A
O2180     Al2188   2.016       .  S
O2181      C3182   1.280       .  A
O2181     Al2188   2.007       .  S
O2182     Al2188   1.913   1_455  S
O2183      C2190   1.261   1_545  A
O2184     Al3167   1.794   1_655  S
O2184     Al3171   1.793       .  S
O2184     Al2188   1.797       .  S
O2185      C2186   1.274       .  A
C2190      O3173   1.280       .  A
C2191      O2192   1.283       .  A
O2192     Al3171   2.026       .  S
C2193      C2690   1.396       .  A
C2193      C2198   1.403       .  A
C2193      H2209   1.081       .  S
C2194      C2689   1.396       .  A
C2194      C2195   1.402       .  A
C2194      H2210   1.084       .  S
C2195      C2205   1.396       .  A
C2195      C2196   1.411       .  A
C2196      C2202   1.405       .  A
C2196      C2693   1.397       .  A
C2197      C2692   1.397       .  A
C2197      C2199   1.412       .  A
C2197      C2198   1.409       .  A
C2198      C2206   1.394       .  A
C2199      C2208   1.386       .  A
C2199      C2200   1.399       .  A
C2200      C2697   1.389       .  A
C2200      H2211   1.083       .  S
C2201      C2696   1.389       .  A
C2201      C2202   1.401       .  A
C2201      H2212   1.084       .  S
C2202      C2203   1.380       .  A
C2203      C2204   1.404       .  A
C2203      H2213   1.075       .  S
C2204      C2205   1.403       .  A
C2205      H2214   1.079       .  S
C2206      C2207   1.401       .  A
C2206      H2215   1.084       .  S
C2207      C2208   1.388       .  A
C2208      H2216   1.073       .  S
C2217      C2218   1.397       .  A
C2217      C2222   1.402       .  A
C2217      H3225   1.083       .  S
C2218      C2219   1.400       .  A
C2218      H2234   1.083       .  S
C2219      C2229   1.393       .  A
C2219      C2220   1.412       .  A
C2220      C2226   1.409       .  A
C2220      C2221   1.393       .  A
C2221      C2223   1.405       .  A
C2221      C2222   1.410       .  A
C2222      C2230   1.395       .  A
C2223      C2232   1.376       .  A
C2223      C2224   1.401       .  A
C2224      C2225   1.387       .  A
C2224      H2235   1.084       .  S
C2225      C2226   1.398       .  A
C2225      H2236   1.084       .  S
C2226      C2227   1.377       .  A
C2227      C2228   1.384       .  A
C2227      H2237   1.069       .  S
C2228      C2229   1.397       .  A
C2229      H2238   1.084       .  S
C2230      C2231   1.407       .  A
C2230      H3231   1.083       .  S
C2231      C2232   1.408       .  A
C2232      H2240   1.079       .  S
H2233      C3209   1.083       .  S
H2239      C3222   1.083       .  S
C2241      C2242   1.379       .  A
C2241      C2246   1.393       .  A
C2241      H2257   1.081       .  S
C2242      C2243   1.397       .  A
C2242      H2258   1.084       .  S
C2243      C2253   1.366       .  A
C2243      C2244   1.402       .  A
C2244      C2250   1.407       .  A
C2244      C2245   1.389       .  A
C2245      C2247   1.409       .  A
C2245      C2246   1.406       .  A
C2246      C2254   1.370       .  A
C2247      C2256   1.398       .  A
C2247      C2248   1.401       .  A
C2248      C2249   1.399       .  A
C2248      H2259   1.077       .  S
C2249      C2250   1.404       .  A
C2249      H3252   1.084       .  S
C2250      C2251   1.397       .  A
C2251      C2252   1.415       .  A
C2251      H3253   1.080       .  S
C2252      C2253   1.396       .  A
C2253      H2262   1.064       .  S
C2254      C2255   1.384       .  A
C2254      H2263   1.084       .  S
C2255      C2256   1.401       .  A
C2256      H2264   1.084       .  S
H2260      C3241   1.084       .  S
H2261      C3243   1.080       .  S
C2265      C2266   1.390       .  A
C2265      C3262   1.399       .  A
C2265      H2281   1.084       .  S
C2266      C2267   1.403       .  A
C2266      H2282   1.084       .  S
C2267      C2277   1.382       .  A
C2267      C3260   1.401   1_545  A
C2268      C3259   1.401       .  A
C2268      C2274   1.409       .  A
C2268      C2269   1.397       .  A
C2269      C2271   1.409       .  A
C2269      C2270   1.414       .  A
C2270      C3257   1.399       .  A
C2270      C2278   1.388       .  A
C2271      C2280   1.389       .  A
C2271      C2272   1.402       .  A
C2272      C2273   1.395       .  A
C2272      H2283   1.084       .  S
C2273      C2274   1.403       .  A
C2273      H2284   1.084       .  S
C2274      C2275   1.394       .  A
C2275      C3268   1.411       .  A
C2275      H2285   1.077       .  S
C2276      C3267   1.411       .  A
C2276      C2277   1.415   1_565  A
C2277      H2286   1.074       .  S
C2278      C2279   1.393       .  A
C2278      H2287   1.085       .  S
C2279      C2280   1.398       .  A
C2280      H2288   1.080       .  S
C2289      C2290   1.390       .  A
C2289      C2294   1.397       .  A
C2289      H2305   1.080       .  S
C2290      C2291   1.401       .  A
C2290      H2306   1.084       .  S
C2291      C2301   1.381       .  A
C2291      C2292   1.405       .  A
C2292      C2298   1.410       .  A
C2292      C2293   1.397       .  A
C2293      C2295   1.409       .  A
C2293      C2294   1.411       .  A
C2294      C2302   1.385       .  A
C2295      C2304   1.394       .  A
C2295      C2296   1.404       .  A
C2296      C2297   1.400       .  A
C2296      H2307   1.083       .  S
C2297      C2298   1.403       .  A
C2297      H2308   1.084       .  S
C2298      C2299   1.401       .  A
C2299      C2300   1.408       .  A
C2299      H2309   1.083       .  S
C2300      C2301   1.410       .  A
C2301      H2310   1.079       .  S
C2302      C2303   1.392       .  A
C2302      H2311   1.083       .  S
C2303      C2304   1.404       .  A
C2304      H2312   1.081       .  S
C2313      C2314   1.394       .  A
C2313      C2318   1.404       .  A
C2313      H2329   1.084       .  S
C2314      C2315   1.400       .  A
C2314      H2330   1.084       .  S
C2315      C2821   1.395       .  A
C2315      C2316   1.414       .  A
C2316      C2322   1.407       .  A
C2316      C2317   1.401       .  A
C2317      C2319   1.411       .  A
C2317      C2318   1.403       .  A
C2318      C2326   1.387       .  A
C2319      C2328   1.400       .  A
C2319      C2320   1.403       .  A
C2320      C2321   1.398       .  A
C2320      H2331   1.084       .  S
C2321      C2322   1.402       .  A
C2321      H2332   1.084       .  S
C2322      C2819   1.391       .  A
C2323      C2818   1.391       .  A
C2323      C2324   1.399   1_556  A
C2323      H2333   1.079       .  S
C2324      C2325   1.397       .  A
C2325      C2811   1.395   1_554  A
C2326      C2327   1.413       .  A
C2326      H2335   1.075       .  S
C2327      C2328   1.411       .  A
C2328      H2336   1.083       .  S
C2337      C2338   1.389       .  A
C2337      C2342   1.401       .  A
C2337      H2353   1.084       .  S
C2338      C2339   1.400       .  A
C2338      H2354   1.084       .  S
C2339      C2349   1.382       .  A
C2339      C2340   1.410       .  A
C2340      C2346   1.411       .  A
C2340      C2341   1.395       .  A
C2341      C2343   1.409       .  A
C2341      C2342   1.406       .  A
C2342      C2350   1.382       .  A
C2343      C2352   1.394       .  A
C2343      C2344   1.402       .  A
C2344      C2345   1.396       .  A
C2344      H2355   1.083       .  S
C2345      C2346   1.401       .  A
C2345      H2356   1.083       .  S
C2346      C2347   1.394       .  A
C2347      C2348   1.398       .  A
C2347      H2357   1.084       .  S
C2348      C2349   1.392       .  A
C2349      H2358   1.074       .  S
C2350      C2351   1.409       .  A
C2350      H2359   1.082       .  S
C2351      C2352   1.403       .  A
C2352      H2360   1.078       .  S
C2361      C2858   1.397       .  A
C2361      C2366   1.402       .  A
C2361      H2873   1.076       .  S
C2362      C2857   1.397       .  A
C2362      C2859   1.402       .  A
C2362      H2378   1.084       .  S
C2363      C2858   1.402       .  A
C2363      C2869   1.395       .  A
C2363      C2364   1.409       .  A
C2364      C2370   1.408       .  A
C2364      C2365   1.397       .  A
C2365      C2367   1.406       .  A
C2365      C2366   1.410       .  A
C2366      C2374   1.401       .  A
C2367      C2376   1.379       .  A
C2367      C2368   1.399       .  A
C2368      C2369   1.386       .  A
C2368      H2379   1.082       .  S
C2369      C2370   1.398       .  A
C2369      H2380   1.084       .  S
C2370      C2371   1.379       .  A
C2373      C2859   1.395       .  A
C2374      C2375   1.404       .  A
C2374      H2383   1.083       .  S
C2375      C2376   1.397       .  A
C2376      H2384   1.070       .  S
H2377      C2857   1.076       .  S
C2385      C2386   1.396       .  A
C2385      H2401   1.084       .  S
C2386      C2387   1.398       .  A
C2386      H2402   1.082       .  S
C2387      C3389   1.391       .  A
C2387      C2388   1.411       .  A
C2389      C2391   1.404       .  A
C2389      C2390   1.408       .  A
C2390      C2398   1.394       .  A
C2391      C2400   1.382       .  A
C2391      C2392   1.403   1_655  A
C2392      C2393   1.390       .  A
C2392      H2403   1.084       .  S
C2393      C2394   1.399       .  A
C2393      H2404   1.084       .  S
C2395      C3388   1.389       .  A
C2395      H2405   1.074       .  S
C2396      C3387   1.389   1_545  A
C2396      C2397   1.394       .  A
C2397      C3379   1.391   1_545  A
C2397      H2406   1.085       .  S
C2398      C2399   1.410       .  A
C2398      H2407   1.079       .  S
C2399      C2400   1.414       .  A
C2400      H2408   1.078       .  S
C2409      C2410   1.394       .  A
C2409      H2425   1.084       .  S
C2410      C2411   1.400       .  A
C2410      H2426   1.079       .  S
C2411      C2421   1.394       .  A
C2411      C2412   1.412       .  A
C2412      C2418   1.409       .  A
C2413      C2415   1.406       .  A
C2413      C2414   1.409       .  A
C2414      C2422   1.392       .  A
C2415      C2424   1.378       .  A
C2415      C2416   1.400       .  A
C2416      C2417   1.386       .  A
C2416      H2427   1.084       .  S
C2417      H2428   1.084       .  S
C2418      C2419   1.376       .  A
C2419      C2420   1.384       .  A
C2419      H2429   1.069       .  S
C2420      C2421   1.397       .  A
C2421      H2430   1.084       .  S
C2422      C2423   1.406       .  A
C2422      H2431   1.080       .  S
C2423      C2424   1.408       .  A
C2424      H2432   1.079       .  S
C2433      C2434   1.383       .  A
C2433      C2438   1.399       .  A
C2433      H2449   1.084       .  S
C2434      C2435   1.396       .  A
C2434      H2450   1.080       .  S
C2435      C2445   1.378       .  A
C2435      C2436   1.408       .  A
C2436      C2442   1.408       .  A
C2436      C2437   1.393       .  A
C2437      C2439   1.409       .  A
C2437      C2438   1.402       .  A
C2438      C2446   1.373       .  A
C2439      C2448   1.396       .  A
C2439      C2440   1.403       .  A
C2440      C2441   1.397       .  A
C2440      H2451   1.084       .  S
C2441      C2442   1.400       .  A
C2441      H2452   1.080       .  S
C2442      C2443   1.393       .  A
C2443      C2444   1.399       .  A
C2443      H2453   1.082       .  S
C2444      C2445   1.390       .  A
C2445      H2454   1.084       .  S
C2446      C2447   1.400       .  A
C2446      H2455   1.061       .  S
C2447      C2448   1.412       .  A
C2448      H2456   1.079       .  S
C2457      C2458   1.398       .  A
C2457      C2462   1.402       .  A
C2457      H2473   1.084       .  S
C2458      C2459   1.404       .  A
C2458      H2474   1.079       .  S
C2459      C2469   1.401       .  A
C2459      C2460   1.409       .  A
C2460      C2466   1.407       .  A
C2460      C2461   1.399       .  A
C2461      C2463   1.407       .  A
C2461      C2462   1.411       .  A
C2462      C2470   1.399       .  A
C2463      C2472   1.381       .  A
C2463      C2464   1.399       .  A
C2464      C2465   1.387       .  A
C2464      H2475   1.084       .  S
C2465      C2466   1.398       .  A
C2465      H2476   1.081       .  S
C2466      C2467   1.383       .  A
C2467      C2468   1.397       .  A
C2467      H2477   1.072       .  S
C2468      C2469   1.406       .  A
C2469      H2478   1.083       .  S
C2470      C2471   1.405       .  A
C2470      H2479   1.080       .  S
C2471      C2472   1.403       .  A
C2472      H2480   1.078       .  S
N2481      C2485   1.380       .  A
N2481      C2482   1.372       .  A
N2481      C2964   1.434       .  S
C2482      C2483   1.388       .  A
C2482      C2620   1.537       .  S
C2483      C2484   1.390       .  A
C2484      C2485   1.383       .  A
C2485      C2578   1.521       .  S
N2488      C2489   1.361       .  A
N2488      C2940   1.414       .  S
C2489      C3482   1.386   1_545  A
C2489      C2564   1.534       .  S
C2490      C3481   1.386       .  A
C2490      H2493   1.081       .  S
C2491      C3484   1.386       .  A
C2491      H2494   1.082       .  S
C2492      C3483   1.386       .  A
C2492      C2686   1.512       .  S
N2495      C2499   1.362       .  A
N2495      C2496   1.359       .  A
N2495      C2916   1.409       .  S
C2496      C2497   1.388       .  A
C2496      C2683   1.532       .  S
C2497      C2498   1.397       .  A
C2497      H2500   1.082       .  S
C2498      C2499   1.382       .  A
C2498      H2501   1.079       .  S
C2499      C2635   1.513       .  S
C2502      C2503   1.403       .  A
C2502      C2507   1.383       .  A
C2502      C2967   1.473       .  S
C2503      C2504   1.401       .  A
C2503      H2508   1.079       .  S
C2504      C2505   1.405       .  A
C2504      C2943   1.485       .  S
C2505      C2506   1.389       .  A
C2505      H2509   1.075       .  S
C2506      C2507   1.396       .  A
C2506      C2919   1.478       .  S
C2507      H2510   1.078       .  S
O2511      C2526   1.256       .  A
O2511     Al2519   1.875       .  S
C2512      C2548   1.539       .  S
C2512      O2522   1.267       .  A
C2512      O2513   1.285       .  A
O2513     Al2515   2.033       .  S
O2514      C2516   1.268       .  A
O2514     Al2515   1.906       .  S
Al2515     O2523   1.889       .  S
Al2515     O2525   2.019       .  S
Al2515     O2524   1.793       .  S
C2516      C2652   1.522       .  S
C2516      O2529   1.279       .  A
O2517      C2527   1.264       .  A
O2517     Al2519   1.897       .  S
O2518      C2531   1.264       .  A
O2518     Al2528   1.893       .  S
Al2519     O2532   2.007       .  S
Al2519     O2529   2.001       .  S
Al2519     O2524   1.786       .  S
O2520      C2527   1.282       .  A
O2520     Al2528   2.014       .  S
O2521      C2530   1.283       .  A
O2521     Al2528   2.019       .  S
O2522     Al2528   1.908       .  S
O2523      C2530   1.259       .  A
O2524     Al2528   1.795       .  S
O2525      C2526   1.280       .  A
C2526      C2544   1.519       .  S
C2527      C2600   1.519       .  S
C2530      C2596   1.520       .  S
C2531      C2648   1.518       .  S
C2531      O2532   1.279       .  A
N2533      C2537   1.366       .  A
N2533      C2534   1.361       .  A
N2533      C2892   1.408       .  S
C2534      C2535   1.387       .  A
C2535      C2536   1.397       .  A
C2535      H2538   1.082       .  S
C2536      C2537   1.385       .  A
C2536      H2539   1.077       .  S
C2537      C2583   1.523       .  S
N2540      C2544   1.378       .  A
N2540      C2541   1.375       .  A
N2540      C2871   1.433       .  S
C2541      C2542   1.389       .  A
C2541      C2568   1.540       .  S
C2542      C2543   1.390       .  A
C2542      H2545   1.082       .  S
C2543      C2544   1.382       .  A
C2543      H2546   1.082       .  S
N2547      C2551   1.371       .  A
N2547      C2548   1.365       .  A
N2547      C2844   1.418       .  S
C2548      C2549   1.388       .  A
C2549      C2550   1.396       .  A
C2549      H2552   1.082       .  S
C2550      C2551   1.383       .  A
C2550      H2553   1.081       .  S
C2551      C2687   1.521       .  S
C2554      C2555   1.397       .  A
C2554      C2559   1.397       .  A
C2554      C2895   1.492       .  S
C2555      H2560   1.074       .  S
C2556      C2557   1.396       .  A
C2556      C2847   1.476   1_554  S
C2557      C2558   1.398       .  A
C2557      H2561   1.080   1_554  S
C2558      C2868   1.472       .  S
C2559      H2562   1.077       .  S
O2563      C2578   1.257       .  A
O2563     Al2571   1.875       .  S
C2564      O2574   1.266       .  A
C2564      O2565   1.285       .  A
O2565     Al2567   2.028       .  S
O2566      C2568   1.270       .  A
O2566     Al2567   1.913       .  S
Al2567     O2575   1.886       .  S
Al2567     O2577   2.022       .  S
O2569      C2579   1.265       .  A
O2569     Al2571   1.904       .  S
O2570      C2583   1.262       .  A
O2570     Al2580   1.891       .  S
Al2571     O2584   2.019       .  S
Al2571     O2581   2.015       .  S
Al2571     O2576   1.791       .  S
O2572      C2579   1.279       .  A
O2572     Al2580   2.000       .  S
O2573      C2582   1.277       .  A
O2573     Al3572   1.988       .  S
O2575      C3078   1.262       .  A
O2576     Al2580   1.799       .  S
C2579      C2586   1.514       .  S
Al2580     O3565   1.988       .  S
C2582      O3071   1.263       .  A
C2583      O2584   1.282       .  A
N2585      C2586   1.356       .  A
C2586      C2587   1.386       .  A
C2587      C2588   1.389       .  A
C2587      H2590   1.081       .  S
C2588      H2591   1.082       .  S
C2589      C2634   1.505       .  S
N2592      C2596   1.374       .  A
N2592      C2593   1.361       .  A
N2592      C2799   1.420       .  S
C2593      C2594   1.386       .  A
C2593      C2631   1.523       .  S
C2594      C2595   1.389       .  A
C2594      H2597   1.080       .  S
C2595      C2596   1.383       .  A
C2595      H2598   1.082       .  S
N2599      C2603   1.362       .  A
N2599      C2600   1.357       .  A
N2599      C2775   1.413       .  S
C2600      C2601   1.386       .  A
C2601      C2602   1.391       .  A
C2601      H2604   1.082       .  S
C2602      C2603   1.385       .  A
C2602      H2605   1.081       .  S
C2606      C2607   1.407       .  A
C2606      C2611   1.412       .  A
C2606      C2823   1.493       .  S
C2607      C2608   1.399       .  A
C2607      H2612   1.081       .  S
C2608      C2609   1.382       .  A
C2608      C2796   1.492       .  S
C2609      C2610   1.399       .  A
C2609      H2613   1.078       .  S
C2610      C2611   1.406       .  A
C2610      C2772   1.503   1_545  S
C2611      H2614   1.079       .  S
O2615      C2630   1.262       .  A
O2615     Al2623   1.888       .  S
C2616      C2638   1.541       .  S
C2616      O2626   1.266       .  A
C2616      O2617   1.287       .  A
O2617     Al2619   2.038       .  S
O2618      C2620   1.270       .  A
O2618     Al2619   1.907       .  S
Al2619     O2627   1.875       .  S
Al2619     O2629   2.004       .  S
Al2619     O2628   1.799       .  S
C2620      O2633   1.277       .  A
O2621      C2631   1.268       .  A
O2621     Al2623   1.918       .  S
O2622      C2635   1.263       .  A
O2622     Al2632   1.884       .  S
Al2623     O2636   1.997       .  S
Al2623     O2633   1.999       .  S
Al2623     O2628   1.798       .  S
O2624      C2631   1.281       .  A
O2624     Al2632   2.006       .  S
O2625      C2634   1.280       .  A
O2625     Al2632   2.002       .  S
O2626     Al2632   1.897       .  S
O2627      C2634   1.258       .  A
O2628     Al2632   1.798       .  S
O2629      C2630   1.280       .  A
C2635      O2636   1.277       .  A
N2637      C2641   1.360       .  A
N2637      C2638   1.363       .  A
N2637      C2751   1.409       .  S
C2638      C2639   1.388       .  A
C2639      C2640   1.397       .  A
C2639      H2642   1.082       .  S
C2640      C2641   1.385       .  A
C2640      H2643   1.082       .  S
C2641      C2682   1.509       .  S
N2644      C2648   1.362       .  A
N2644      C2645   1.357       .  A
N2644      C2724   1.407       .  S
C2645      C2646   1.388       .  A
C2646      C2647   1.398       .  A
C2647      C2648   1.385       .  A
C2647      H2650   1.079       .  S
N2651      C2655   1.366       .  A
N2651      C2652   1.358       .  A
N2651      C2703   1.417   1_556  S
C2652      C2653   1.384       .  A
C2653      C2654   1.393       .  A
C2653      H2656   1.078       .  S
C2654      C2655   1.383       .  A
C2654      H2657   1.082       .  S
C2658      C2659   1.386       .  A
C2658      C2663   1.401       .  A
C2658      C2700   1.474       .  S
C2659      C2660   1.394       .  A
C2659      H2664   1.080       .  S
C2660      C3653   1.387       .  A
C2660      C2727   1.477       .  S
C2661      C3652   1.387       .  A
C2661      C2662   1.409       .  A
C2661      H2665   1.075       .  S
C2662      C3655   1.399       .  A
C2662      C2748   1.483       .  S
C2663      C3654   1.400       .  A
C2663      H2666   1.080       .  S
O2667      C2682   1.262       .  A
O2667     Al2675   1.897   1_545  S
C2668      O2678   1.269       .  A
C2668      O2669   1.280       .  A
O2669     Al3663   2.014       .  S
O2670      C2672   1.270   1_565  A
O2670     Al2671   1.914       .  S
Al2671     O3661   2.014       .  S
Al2671     O2679   1.896   1_465  S
Al2671     O2681   1.985   1_465  S
Al2671     O3672   1.794   1_455  S
C2672      O2685   1.288   1_445  A
O2673      C2683   1.267       .  A
O2673     Al3667   1.903       .  S
O2674      C2687   1.258       .  A
O2674     Al2684   1.870       .  S
Al2675     O3665   1.903       .  S
Al2675     O3680   2.026       .  S
Al2675     O2685   2.036       .  S
Al2675     O3672   1.794       .  S
O2676      C2683   1.282       .  A
O2676     Al2684   2.016       .  S
O2677      C3678   1.280       .  A
O2677     Al2684   2.007       .  S
O2678     Al2684   1.913   1_455  S
O2679      C2686   1.261   1_545  A
O2680     Al3663   1.794   1_655  S
O2680     Al3667   1.793       .  S
O2680     Al2684   1.797       .  S
O2681      C2682   1.274       .  A
C2686      O3669   1.280       .  A
C2687      O2688   1.283       .  A
O2688     Al3667   2.026       .  S
C2689      C2694   1.403       .  A
C2689      H2705   1.081   1_554  S
C2690      C2691   1.402       .  A
C2690      H2706   1.084       .  S
C2691      C2701   1.396       .  A
C2691      C2692   1.411       .  A
C2692      C2698   1.405       .  A
C2693      C2695   1.412       .  A
C2693      C2694   1.409       .  A
C2694      C2702   1.394       .  A
C2695      C2704   1.386       .  A
C2695      C2696   1.399       .  A
C2696      H2707   1.083       .  S
C2697      C2698   1.401       .  A
C2697      H2708   1.084       .  S
C2698      C2699   1.380       .  A
C2699      C2700   1.404       .  A
C2699      H2709   1.075       .  S
C2700      C2701   1.403       .  A
C2701      H2710   1.079       .  S
C2702      C2703   1.401       .  A
C2702      H2711   1.084   1_554  S
C2703      C2704   1.388       .  A
C2704      H2712   1.073       .  S
C2713      C2714   1.397       .  A
C2713      C2718   1.402       .  A
C2713      H3721   1.083       .  S
C2714      C2715   1.400       .  A
C2714      H2730   1.083       .  S
C2715      C2725   1.393       .  A
C2715      C2716   1.412       .  A
C2716      C2722   1.409       .  A
C2716      C2717   1.393       .  A
C2717      C2719   1.405       .  A
C2717      C2718   1.410       .  A
C2718      C2726   1.395       .  A
C2719      C2728   1.376       .  A
C2719      C2720   1.401       .  A
C2720      C2721   1.387       .  A
C2720      H2731   1.084       .  S
C2721      C2722   1.398       .  A
C2721      H2732   1.084       .  S
C2722      C2723   1.377       .  A
C2723      C2724   1.384       .  A
C2723      H2733   1.069       .  S
C2724      C2725   1.397       .  A
C2725      H2734   1.084       .  S
C2726      C2727   1.407       .  A
C2726      H3727   1.083       .  S
C2727      C2728   1.408       .  A
C2728      H2736   1.079       .  S
H2729      C3705   1.083       .  S
H2735      C3718   1.083       .  S
C2737      C2738   1.379       .  A
C2737      C2742   1.393       .  A
C2737      H2753   1.081       .  S
C2738      C2739   1.397       .  A
C2738      H2754   1.084       .  S
C2739      C2749   1.366       .  A
C2739      C2740   1.402       .  A
C2740      C2746   1.407       .  A
C2740      C2741   1.389       .  A
C2741      C2743   1.409       .  A
C2741      C2742   1.406       .  A
C2742      C2750   1.370       .  A
C2743      C2752   1.398       .  A
C2743      C2744   1.401       .  A
C2744      C2745   1.399       .  A
C2744      H2755   1.077       .  S
C2745      C2746   1.404       .  A
C2745      H3748   1.084       .  S
C2746      C2747   1.397       .  A
C2747      C2748   1.415       .  A
C2747      H3749   1.080       .  S
C2748      C2749   1.396       .  A
C2749      H2758   1.064       .  S
C2750      C2751   1.384       .  A
C2750      H2759   1.084       .  S
C2751      C2752   1.401       .  A
C2752      H2760   1.084       .  S
H2756      C3737   1.084       .  S
H2757      C3739   1.080       .  S
C2761      C2762   1.390       .  A
C2761      C3758   1.399       .  A
C2761      H2777   1.084       .  S
C2762      C2763   1.403       .  A
C2762      H2778   1.084       .  S
C2763      C2773   1.382       .  A
C2763      C3756   1.401   1_545  A
C2764      C3755   1.401       .  A
C2764      C2770   1.409       .  A
C2764      C2765   1.397       .  A
C2765      C2767   1.409       .  A
C2765      C2766   1.414       .  A
C2766      C3753   1.399       .  A
C2766      C2774   1.388       .  A
C2767      C2776   1.389       .  A
C2767      C2768   1.402       .  A
C2768      C2769   1.395       .  A
C2768      H2779   1.084       .  S
C2769      C2770   1.403       .  A
C2769      H2780   1.084       .  S
C2770      C2771   1.394       .  A
C2771      C3764   1.411       .  A
C2771      H2781   1.077       .  S
C2772      C3763   1.411       .  A
C2772      C2773   1.415   1_565  A
C2773      H2782   1.074       .  S
C2774      C2775   1.393       .  A
C2774      H2783   1.085       .  S
C2775      C2776   1.398       .  A
C2776      H2784   1.080       .  S
C2785      C2786   1.390       .  A
C2785      C2790   1.397       .  A
C2785      H2801   1.080       .  S
C2786      C2787   1.401       .  A
C2786      H2802   1.084       .  S
C2787      C2797   1.381       .  A
C2787      C2788   1.405       .  A
C2788      C2794   1.410       .  A
C2788      C2789   1.397       .  A
C2789      C2791   1.409       .  A
C2789      C2790   1.411       .  A
C2790      C2798   1.385       .  A
C2791      C2800   1.394       .  A
C2791      C2792   1.404       .  A
C2792      C2793   1.400       .  A
C2792      H2803   1.083       .  S
C2793      C2794   1.403       .  A
C2793      H2804   1.084       .  S
C2794      C2795   1.401       .  A
C2795      C2796   1.408       .  A
C2795      H2805   1.083       .  S
C2796      C2797   1.410       .  A
C2797      H2806   1.079       .  S
C2798      C2799   1.392       .  A
C2798      H2807   1.083       .  S
C2799      C2800   1.404       .  A
C2800      H2808   1.081       .  S
C2809      C2810   1.394       .  A
C2809      C2814   1.404       .  A
C2809      H2825   1.084       .  S
C2810      C2811   1.400       .  A
C2810      H2826   1.084   1_556  S
C2811      C2812   1.414       .  A
C2812      C2818   1.407       .  A
C2812      C2813   1.401       .  A
C2813      C2815   1.411       .  A
C2813      C2814   1.403       .  A
C2814      C2822   1.387       .  A
C2815      C2824   1.400       .  A
C2815      C2816   1.403       .  A
C2816      C2817   1.398       .  A
C2816      H2827   1.084       .  S
C2817      C2818   1.402       .  A
C2817      H2828   1.084       .  S
C2819      C2820   1.399       .  A
C2819      H2829   1.079       .  S
C2820      C2821   1.397       .  A
C2822      C2823   1.413       .  A
C2822      H2831   1.075       .  S
C2823      C2824   1.411       .  A
C2824      H2832   1.083       .  S
C2833      C2834   1.389       .  A
C2833      C2838   1.401       .  A
C2833      H2849   1.084       .  S
C2834      C2835   1.400       .  A
C2834      H2850   1.084       .  S
C2835      C2845   1.382       .  A
C2835      C2836   1.410       .  A
C2836      C2842   1.411       .  A
C2836      C2837   1.395       .  A
C2837      C2839   1.409       .  A
C2837      C2838   1.406       .  A
C2838      C2846   1.382       .  A
C2839      C2848   1.394       .  A
C2839      C2840   1.402       .  A
C2840      C2841   1.396       .  A
C2840      H2851   1.083       .  S
C2841      C2842   1.401       .  A
C2841      H2852   1.083       .  S
C2842      C2843   1.394       .  A
C2843      C2844   1.398       .  A
C2843      H2853   1.084       .  S
C2844      C2845   1.392       .  A
C2845      H2854   1.074       .  S
C2846      C2847   1.409       .  A
C2846      H2855   1.082       .  S
C2847      C2848   1.403       .  A
C2848      H2856   1.078       .  S
C2857      C2862   1.402   1_554  A
C2858      H2874   1.084       .  S
C2859      C2860   1.409   1_554  A
C2860      C2866   1.408       .  A
C2860      C2861   1.397       .  A
C2861      C2863   1.406       .  A
C2861      C2862   1.410       .  A
C2862      C2870   1.401       .  A
C2863      C2872   1.379       .  A
C2863      C2864   1.399       .  A
C2864      C2865   1.386       .  A
C2864      H2875   1.082       .  S
C2865      C2866   1.398       .  A
C2865      H2876   1.084       .  S
C2866      C2867   1.379       .  A
C2870      C2871   1.404       .  A
C2870      H2879   1.083       .  S
C2871      C2872   1.397       .  A
C2872      H2880   1.070       .  S
C2881      C2882   1.396       .  A
C2881      H2897   1.084       .  S
C2882      C2883   1.398       .  A
C2882      H2898   1.082       .  S
C2883      C3885   1.391       .  A
C2883      C2884   1.411       .  A
C2885      C2887   1.404       .  A
C2885      C2886   1.408       .  A
C2886      C2894   1.394       .  A
C2887      C2896   1.382       .  A
C2887      C2888   1.403   1_655  A
C2888      C2889   1.390       .  A
C2888      H2899   1.084       .  S
C2889      C2890   1.399       .  A
C2889      H2900   1.084       .  S
C2891      C3884   1.389       .  A
C2891      H2901   1.074       .  S
C2892      C3883   1.389   1_545  A
C2892      C2893   1.394       .  A
C2893      C3875   1.391   1_545  A
C2893      H2902   1.085       .  S
C2894      C2895   1.410       .  A
C2894      H2903   1.079       .  S
C2895      C2896   1.414       .  A
C2896      H2904   1.078       .  S
C2905      C2906   1.394       .  A
C2905      H2921   1.084       .  S
C2906      C2907   1.400       .  A
C2906      H2922   1.079       .  S
C2907      C2917   1.394       .  A
C2907      C2908   1.412       .  A
C2908      C2914   1.409       .  A
C2909      C2911   1.406       .  A
C2909      C2910   1.409       .  A
C2910      C2918   1.392       .  A
C2911      C2920   1.378       .  A
C2911      C2912   1.400       .  A
C2912      C2913   1.386       .  A
C2912      H2923   1.084       .  S
C2913      H2924   1.084       .  S
C2914      C2915   1.376       .  A
C2915      C2916   1.384       .  A
C2915      H2925   1.069       .  S
C2916      C2917   1.397       .  A
C2917      H2926   1.084       .  S
C2918      C2919   1.406       .  A
C2918      H2927   1.080       .  S
C2919      C2920   1.408       .  A
C2920      H2928   1.079       .  S
C2929      C2930   1.383       .  A
C2929      C2934   1.399       .  A
C2929      H2945   1.084       .  S
C2930      C2931   1.396       .  A
C2930      H2946   1.080       .  S
C2931      C2941   1.378       .  A
C2931      C2932   1.408       .  A
C2932      C2938   1.408       .  A
C2932      C2933   1.393       .  A
C2933      C2935   1.409       .  A
C2933      C2934   1.402       .  A
C2934      C2942   1.373       .  A
C2935      C2944   1.396       .  A
C2935      C2936   1.403       .  A
C2936      C2937   1.397       .  A
C2936      H2947   1.084       .  S
C2937      C2938   1.400       .  A
C2937      H2948   1.080       .  S
C2938      C2939   1.393       .  A
C2939      C2940   1.399       .  A
C2939      H2949   1.082       .  S
C2940      C2941   1.390       .  A
C2941      H2950   1.084       .  S
C2942      C2943   1.400       .  A
C2942      H2951   1.061       .  S
C2943      C2944   1.412       .  A
C2944      H2952   1.079       .  S
C2953      C2954   1.398       .  A
C2953      C2958   1.402       .  A
C2953      H2969   1.084       .  S
C2954      C2955   1.404       .  A
C2954      H2970   1.079       .  S
C2955      C2965   1.401       .  A
C2955      C2956   1.409       .  A
C2956      C2962   1.407       .  A
C2956      C2957   1.399       .  A
C2957      C2959   1.407       .  A
C2957      C2958   1.411       .  A
C2958      C2966   1.399       .  A
C2959      C2968   1.381       .  A
C2959      C2960   1.399       .  A
C2960      C2961   1.387       .  A
C2960      H2971   1.084       .  S
C2961      C2962   1.398       .  A
C2961      H2972   1.081       .  S
C2962      C2963   1.383       .  A
C2963      C2964   1.397       .  A
C2963      H2973   1.072       .  S
C2964      C2965   1.406       .  A
C2965      H2974   1.083       .  S
C2966      C2967   1.405       .  A
C2966      H2975   1.080       .  S
C2967      C2968   1.403       .  A
C2968      H2976   1.078       .  S
N2977      C2981   1.379       .  A
N2977      C2978   1.372       .  A
N2977      C3460   1.434       .  S
C2978      C2979   1.388       .  A
C2978      C3116   1.537       .  S
C2979      C2980   1.390   1_554  A
C2979      H3478   1.082       .  S
C2980      C2981   1.383   1_556  A
C2980      H3479   1.082       .  S
C2981      C3074   1.521       .  S
H2982      C3475   1.082       .  S
H2983      C3476   1.082       .  S
N2984      C2985   1.361       .  A
N2984      C3436   1.414       .  S
C2985      C3060   1.534       .  S
C2986      H2989   1.081       .  S
C2987      H2990   1.082       .  S
C2988      C3182   1.512       .  S
N2991      C2995   1.362       .  A
N2991      C2992   1.359       .  A
N2991      C3412   1.409       .  S
C2992      C2993   1.388       .  A
C2992      C3179   1.532       .  S
C2993      C2994   1.397       .  A
C2993      H2996   1.082       .  S
C2994      C2995   1.382       .  A
C2994      H2997   1.079       .  S
C2995      C3131   1.513       .  S
C2998      C2999   1.403       .  A
C2998      C3003   1.383       .  A
C2998      C3463   1.473       .  S
C2999      C3000   1.401       .  A
C2999      H3004   1.079       .  S
C3000      C3001   1.405       .  A
C3000      C3439   1.485       .  S
C3001      C3002   1.389       .  A
C3001      H3005   1.075       .  S
C3002      C3003   1.395       .  A
C3002      C3415   1.478       .  S
C3003      H3006   1.078       .  S
O3007      C3022   1.256       .  A
O3007     Al3015   1.875       .  S
C3008      C3044   1.539       .  S
C3008      O3018   1.267       .  A
C3008      O3009   1.285       .  A
O3009     Al3011   2.033       .  S
O3010      C3012   1.268       .  A
O3010     Al3011   1.906       .  S
Al3011     O3019   1.889       .  S
Al3011     O3021   2.019       .  S
Al3011     O3020   1.793       .  S
C3012      C3148   1.523       .  S
C3012      O3025   1.279       .  A
O3013      C3023   1.264       .  A
O3013     Al3015   1.897       .  S
O3014      C3027   1.264       .  A
O3014     Al3024   1.893       .  S
Al3015     O3028   2.008       .  S
Al3015     O3025   2.001       .  S
Al3015     O3020   1.786       .  S
O3016      C3023   1.282       .  A
O3016     Al3024   2.014       .  S
O3017      C3026   1.283       .  A
O3017     Al3024   2.020       .  S
O3018     Al3024   1.908       .  S
O3019      C3026   1.259       .  A
O3020     Al3024   1.795       .  S
O3021      C3022   1.280       .  A
C3022      C3040   1.519       .  S
C3023      C3096   1.519       .  S
C3026      C3092   1.520       .  S
C3027      C3144   1.518       .  S
C3027      O3028   1.279       .  A
N3029      C3033   1.366       .  A
N3029      C3030   1.361       .  A
N3029      C3388   1.408       .  S
C3030      C3031   1.387       .  A
C3031      C3032   1.397       .  A
C3031      H3034   1.082       .  S
C3032      C3033   1.385       .  A
C3032      H3035   1.077       .  S
C3033      C3079   1.524       .  S
N3036      C3040   1.378       .  A
N3036      C3037   1.375       .  A
N3036      C3367   1.433       .  S
C3037      C3038   1.389       .  A
C3037      C3064   1.541       .  S
C3038      C3039   1.390       .  A
C3038      H3041   1.082       .  S
C3039      C3040   1.382       .  A
C3039      H3042   1.082       .  S
N3043      C3047   1.371       .  A
N3043      C3044   1.365       .  A
N3043      C3340   1.418       .  S
C3044      C3045   1.388       .  A
C3045      C3046   1.396       .  A
C3045      H3048   1.082       .  S
C3046      C3047   1.383       .  A
C3046      H3049   1.081       .  S
C3047      C3183   1.521       .  S
C3050      C3051   1.397       .  A
C3050      C3055   1.397       .  A
C3050      C3391   1.492       .  S
C3051      C3548   1.402       .  A
C3051      H3056   1.074       .  S
C3052      C3547   1.402       .  A
C3052      C3053   1.396       .  A
C3052      C3343   1.476       .  S
C3053      C3054   1.397       .  A
C3053      H3057   1.080       .  S
C3054      C3551   1.383       .  A
C3054      C3364   1.472       .  S
C3055      C3550   1.383       .  A
C3055      H3058   1.077       .  S
O3059      C3074   1.257       .  A
O3059     Al3067   1.874       .  S
C3060      O3070   1.266       .  A
C3060      O3061   1.285       .  A
O3061     Al3063   2.028       .  S
O3062      C3064   1.270       .  A
O3062     Al3063   1.913       .  S
Al3063     O3071   1.886       .  S
Al3063     O3073   2.022       .  S
Al3063     O3568   1.797       .  S
C3064      O3573   1.280       .  A
O3065      C3075   1.265       .  A
O3065     Al3067   1.904       .  S
O3066      C3079   1.262       .  A
O3066     Al3076   1.891   1_554  S
Al3067     O3080   2.020       .  S
Al3067     O3077   2.015   1_554  S
Al3067     O3072   1.791   1_554  S
O3068      C3075   1.279       .  A
O3068     Al3076   2.001   1_554  S
O3069      C3078   1.277       .  A
O3070     Al3572   1.901       .  S
O3072     Al3559   1.797       .  S
O3072     Al3076   1.799       .  S
O3073      C3570   1.282       .  A
C3074      O3569   1.282   1_554  A
C3075      C3082   1.514       .  S
Al3076     O3566   1.901       .  S
O3077      C3560   1.280       .  A
C3078      C3595   1.505   1_545  S
C3079      O3080   1.282       .  A
N3081      C3082   1.356       .  A
C3082      C3083   1.386       .  A
C3083      C3084   1.389       .  A
C3083      H3086   1.081       .  S
C3084      H3087   1.082       .  S
C3085      C3130   1.505       .  S
N3088      C3092   1.374       .  A
N3088      C3089   1.361       .  A
N3088      C3295   1.420       .  S
C3089      C3090   1.386       .  A
C3089      C3127   1.523       .  S
C3090      C3091   1.390       .  A
C3090      H3093   1.080       .  S
C3091      C3092   1.383       .  A
C3091      H3094   1.082       .  S
N3095      C3099   1.362       .  A
N3095      C3096   1.357       .  A
N3095      C3271   1.413       .  S
C3096      C3097   1.386       .  A
C3097      C3098   1.391       .  A
C3097      H3100   1.082       .  S
C3098      C3099   1.385       .  A
C3098      H3101   1.081       .  S
C3099      C3574   1.505   1_565  S
C3102      C3103   1.407       .  A
C3102      C3107   1.412       .  A
C3102      C3319   1.493       .  S
C3103      C3104   1.399       .  A
C3103      H3108   1.081       .  S
C3104      C3105   1.382       .  A
C3104      C3292   1.492       .  S
C3105      C3106   1.399       .  A
C3105      H3109   1.078       .  S
C3106      C3107   1.406       .  A
C3106      C3268   1.503       .  S
C3107      H3110   1.079       .  S
O3111      C3126   1.262       .  A
O3111     Al3119   1.888       .  S
C3112      C3134   1.541       .  S
C3112      O3122   1.266       .  A
C3112      O3113   1.287       .  A
O3113     Al3115   2.038       .  S
O3114      C3116   1.270       .  A
O3114     Al3115   1.907       .  S
Al3115     O3123   1.875       .  S
Al3115     O3125   2.005       .  S
Al3115     O3124   1.799       .  S
C3116      O3129   1.277       .  A
O3117      C3127   1.268       .  A
O3117     Al3119   1.918       .  S
O3118      C3131   1.263       .  A
O3118     Al3128   1.885       .  S
Al3119     O3132   1.997       .  S
Al3119     O3129   1.999       .  S
Al3119     O3124   1.798       .  S
O3120      C3127   1.281       .  A
O3120     Al3128   2.006       .  S
O3121      C3130   1.280       .  A
O3121     Al3128   2.002       .  S
O3122     Al3128   1.897       .  S
O3123      C3130   1.258       .  A
O3124     Al3128   1.798       .  S
O3125      C3126   1.281       .  A
C3126      C3647   1.510   1_554  S
C3131      O3132   1.277       .  A
N3133      C3137   1.360       .  A
N3133      C3134   1.363       .  A
N3133      C3247   1.409       .  S
C3134      C3135   1.388       .  A
C3135      C3136   1.398       .  A
C3135      H3138   1.082       .  S
C3136      C3137   1.385       .  A
C3136      H3139   1.082       .  S
C3137      C3178   1.510       .  S
N3140      C3144   1.362       .  A
N3140      C3141   1.357       .  A
N3140      C3220   1.407       .  S
C3141      C3142   1.388       .  A
C3142      C3143   1.398       .  A
C3143      C3144   1.385       .  A
C3143      H3146   1.079       .  S
N3147      C3151   1.366       .  A
N3147      C3148   1.358       .  A
N3147      C3199   1.417       .  S
C3148      C3149   1.384       .  A
C3149      C3150   1.393       .  A
C3149      H3152   1.078       .  S
C3150      C3151   1.383       .  A
C3150      H3153   1.082       .  S
C3151      C3622   1.510       .  S
C3154      C3155   1.386       .  A
C3154      C3159   1.401   1_565  A
C3154      C3196   1.474       .  S
C3155      C3156   1.394   1_565  A
C3155      H3160   1.080       .  S
C3156      C3223   1.477       .  S
C3157      C3158   1.409       .  A
C3157      H3161   1.075       .  S
C3158      C3244   1.483       .  S
C3159      H3162   1.080       .  S
O3163      C3178   1.262       .  A
O3163     Al3171   1.897       .  S
C3164      O3174   1.270       .  A
C3164      O3165   1.280       .  A
O3166      C3168   1.270       .  A
O3166     Al3167   1.914       .  S
Al3167     O3175   1.896   1_455  S
Al3167     O3177   1.985   1_455  S
C3168      O3181   1.288   1_455  A
O3169      C3179   1.267       .  A
O3170      C3183   1.258       .  A
O3170     Al3180   1.869       .  S
Al3171     O3181   2.036       .  S
O3172      C3179   1.282       .  A
O3172     Al3180   2.016       .  S
O3173     Al3180   2.007       .  S
O3174     Al3180   1.913   1_455  S
O3175      C3182   1.261       .  A
O3176     Al3180   1.796       .  S
O3177      C3178   1.274       .  A
C3183      O3184   1.283       .  A
C3185      C3682   1.396       .  A
C3185      C3190   1.403       .  A
C3185      H3201   1.081       .  S
C3186      C3681   1.396       .  A
C3186      C3187   1.402       .  A
C3186      H3202   1.084       .  S
C3187      C3197   1.396       .  A
C3187      C3188   1.411       .  A
C3188      C3194   1.405       .  A
C3188      C3685   1.397       .  A
C3189      C3684   1.397       .  A
C3189      C3191   1.412       .  A
C3189      C3190   1.409       .  A
C3190      C3198   1.394       .  A
C3191      C3200   1.386       .  A
C3191      C3192   1.399       .  A
C3192      C3689   1.389       .  A
C3192      H3203   1.083       .  S
C3193      C3688   1.389       .  A
C3193      C3194   1.401       .  A
C3193      H3204   1.084       .  S
C3194      C3195   1.380       .  A
C3195      C3196   1.404       .  A
C3195      H3205   1.075       .  S
C3196      C3197   1.403       .  A
C3197      H3206   1.079       .  S
C3198      C3199   1.401       .  A
C3198      H3207   1.084       .  S
C3199      C3200   1.388       .  A
C3200      H3208   1.073       .  S
C3209      C3210   1.397       .  A
C3209      C3214   1.402       .  A
C3210      C3211   1.400   1_545  A
C3210      H3226   1.083       .  S
C3211      C3221   1.393       .  A
C3211      C3212   1.412       .  A
C3212      C3218   1.409       .  A
C3212      C3213   1.393       .  A
C3213      C3215   1.405       .  A
C3213      C3214   1.410   1_565  A
C3214      C3222   1.395       .  A
C3215      C3224   1.376       .  A
C3215      C3216   1.401       .  A
C3216      C3217   1.387       .  A
C3216      H3227   1.084       .  S
C3217      C3218   1.398       .  A
C3217      H3228   1.084       .  S
C3218      C3219   1.377       .  A
C3219      C3220   1.384       .  A
C3219      H3229   1.069       .  S
C3220      C3221   1.397       .  A
C3221      H3230   1.084       .  S
C3222      C3223   1.407       .  A
C3223      C3224   1.408   1_545  A
C3224      H3232   1.079       .  S
C3233      C3234   1.379       .  A
C3233      C3238   1.393       .  A
C3233      H3249   1.081       .  S
C3234      C3235   1.397       .  A
C3234      H3250   1.084       .  S
C3235      C3245   1.366       .  A
C3235      C3236   1.402       .  A
C3236      C3242   1.407       .  A
C3236      C3237   1.389       .  A
C3237      C3239   1.409       .  A
C3237      C3238   1.406       .  A
C3238      C3246   1.370       .  A
C3239      C3248   1.398       .  A
C3239      C3240   1.401       .  A
C3240      C3241   1.399       .  A
C3240      H3251   1.077       .  S
C3241      C3242   1.404       .  A
C3242      C3243   1.397       .  A
C3243      C3244   1.415       .  A
C3244      C3245   1.397       .  A
C3245      H3254   1.064       .  S
C3246      C3247   1.384       .  A
C3246      H3255   1.084       .  S
C3247      C3248   1.401       .  A
C3248      H3256   1.084       .  S
C3257      C3258   1.390       .  A
C3257      H3273   1.084       .  S
C3258      C3259   1.403       .  A
C3258      H3274   1.084       .  S
C3259      C3269   1.382       .  A
C3260      C3266   1.409       .  A
C3260      C3261   1.397       .  A
C3261      C3263   1.409       .  A
C3261      C3262   1.414   1_565  A
C3262      C3270   1.388       .  A
C3263      C3272   1.389       .  A
C3263      C3264   1.402       .  A
C3264      C3265   1.395       .  A
C3264      H3275   1.084       .  S
C3265      C3266   1.403       .  A
C3265      H3276   1.084       .  S
C3266      C3267   1.394       .  A
C3267      H3277   1.077       .  S
C3268      C3269   1.415       .  A
C3269      H3278   1.074       .  S
C3270      C3271   1.393   1_545  A
C3270      H3279   1.085       .  S
C3271      C3272   1.398       .  A
C3272      H3280   1.080       .  S
C3281      C3282   1.390       .  A
C3281      C3286   1.397       .  A
C3281      H3297   1.080       .  S
C3282      C3283   1.401       .  A
C3282      H3298   1.084       .  S
C3283      C3293   1.381       .  A
C3283      C3284   1.405       .  A
C3284      C3290   1.410       .  A
C3284      C3285   1.397       .  A
C3285      C3287   1.409       .  A
C3285      C3286   1.411       .  A
C3286      C3294   1.385       .  A
C3287      C3296   1.394       .  A
C3287      C3288   1.404       .  A
C3288      C3289   1.400       .  A
C3288      H3299   1.083       .  S
C3289      C3290   1.402       .  A
C3289      H3300   1.084       .  S
C3290      C3291   1.401       .  A
C3291      C3292   1.408       .  A
C3291      H3301   1.083       .  S
C3292      C3293   1.410       .  A
C3293      H3302   1.079       .  S
C3294      C3295   1.392       .  A
C3294      H3303   1.083       .  S
C3295      C3296   1.404       .  A
C3296      H3304   1.081       .  S
C3305      C3306   1.394       .  A
C3305      C3310   1.404       .  A
C3305      H3321   1.084       .  S
C3306      C3307   1.400       .  A
C3306      H3322   1.084       .  S
C3307      C3813   1.394       .  A
C3307      C3308   1.414       .  A
C3308      C3314   1.407       .  A
C3308      C3309   1.401       .  A
C3309      C3311   1.411       .  A
C3309      C3310   1.403       .  A
C3310      C3318   1.387       .  A
C3311      C3320   1.400       .  A
C3311      C3312   1.403       .  A
C3312      C3313   1.398       .  A
C3312      H3323   1.084       .  S
C3313      C3314   1.402       .  A
C3313      H3324   1.084       .  S
C3314      C3811   1.391       .  A
C3315      C3810   1.391       .  A
C3315      C3316   1.399   1_556  A
C3315      H3325   1.079       .  S
C3316      C3317   1.396       .  A
C3317      C3803   1.394   1_554  A
C3318      C3319   1.413       .  A
C3318      H3327   1.075       .  S
C3319      C3320   1.411       .  A
C3320      H3328   1.083       .  S
C3329      C3330   1.389       .  A
C3329      C3334   1.401       .  A
C3329      H3345   1.084       .  S
C3330      C3331   1.400       .  A
C3330      H3346   1.084       .  S
C3331      C3341   1.382       .  A
C3331      C3332   1.410       .  A
C3332      C3338   1.411       .  A
C3332      C3333   1.395       .  A
C3333      C3335   1.409       .  A
C3333      C3334   1.406       .  A
C3334      C3342   1.382       .  A
C3335      C3344   1.394       .  A
C3335      C3336   1.402       .  A
C3336      C3337   1.396       .  A
C3336      H3347   1.083       .  S
C3337      C3338   1.401       .  A
C3337      H3348   1.083       .  S
C3338      C3339   1.394       .  A
C3339      C3340   1.398       .  A
C3339      H3349   1.084       .  S
C3340      C3341   1.392       .  A
C3341      H3350   1.074       .  S
C3342      C3343   1.409       .  A
C3342      H3351   1.082       .  S
C3343      C3344   1.403       .  A
C3344      H3352   1.078       .  S
C3353      C3850   1.397       .  A
C3353      C3358   1.402       .  A
C3353      H3865   1.077       .  S
C3354      C3849   1.397       .  A
C3354      C3851   1.402       .  A
C3354      H3370   1.084       .  S
C3355      C3850   1.402       .  A
C3355      C3861   1.395       .  A
C3355      C3356   1.409       .  A
C3356      C3362   1.408       .  A
C3356      C3357   1.397       .  A
C3357      C3359   1.406       .  A
C3357      C3358   1.410       .  A
C3358      C3366   1.401       .  A
C3359      C3368   1.379       .  A
C3359      C3360   1.399       .  A
C3360      C3361   1.386       .  A
C3360      H3371   1.082       .  S
C3361      C3362   1.398       .  A
C3361      H3372   1.084       .  S
C3362      C3363   1.379       .  A
C3365      C3851   1.395       .  A
C3366      C3367   1.404       .  A
C3366      H3375   1.083       .  S
C3367      C3368   1.397       .  A
C3368      H3376   1.070       .  S
H3369      C3849   1.077       .  S
C3377      C3378   1.396       .  A
C3377      H3393   1.084       .  S
C3378      C3379   1.398       .  A
C3378      H3394   1.082   1_565  S
C3379      C3380   1.411       .  A
C3381      C3383   1.404       .  A
C3381      C3382   1.408       .  A
C3382      C3390   1.394       .  A
C3383      C3392   1.382       .  A
C3383      C3384   1.403   1_655  A
C3384      C3385   1.390       .  A
C3384      H3395   1.084       .  S
C3385      C3386   1.399       .  A
C3385      H3396   1.084       .  S
C3387      H3397   1.074       .  S
C3388      C3389   1.394       .  A
C3389      H3398   1.085       .  S
C3390      C3391   1.410       .  A
C3390      H3399   1.079       .  S
C3391      C3392   1.414       .  A
C3392      H3400   1.078       .  S
C3401      C3402   1.394       .  A
C3401      H3417   1.084       .  S
C3402      C3403   1.400       .  A
C3402      H3418   1.079       .  S
C3403      C3413   1.394       .  A
C3403      C3404   1.412       .  A
C3404      C3410   1.409       .  A
C3405      C3407   1.406       .  A
C3405      C3406   1.409       .  A
C3406      C3414   1.392       .  A
C3407      C3416   1.378       .  A
C3407      C3408   1.400       .  A
C3408      C3409   1.386       .  A
C3408      H3419   1.084       .  S
C3409      H3420   1.084       .  S
C3410      C3411   1.376       .  A
C3411      C3412   1.384       .  A
C3411      H3421   1.068       .  S
C3412      C3413   1.397       .  A
C3413      H3422   1.084       .  S
C3414      C3415   1.406       .  A
C3414      H3423   1.080       .  S
C3415      C3416   1.408       .  A
C3416      H3424   1.079       .  S
C3425      C3426   1.383       .  A
C3425      C3430   1.399       .  A
C3425      H3441   1.084       .  S
C3426      C3427   1.396       .  A
C3426      H3442   1.080       .  S
C3427      C3437   1.378       .  A
C3427      C3428   1.408       .  A
C3428      C3434   1.408       .  A
C3428      C3429   1.393       .  A
C3429      C3431   1.409       .  A
C3429      C3430   1.402       .  A
C3430      C3438   1.373       .  A
C3431      C3440   1.396       .  A
C3431      C3432   1.403       .  A
C3432      C3433   1.397       .  A
C3432      H3443   1.084       .  S
C3433      C3434   1.400       .  A
C3433      H3444   1.080       .  S
C3434      C3435   1.393       .  A
C3435      C3436   1.399       .  A
C3435      H3445   1.082       .  S
C3436      C3437   1.390       .  A
C3437      H3446   1.084       .  S
C3438      C3439   1.400       .  A
C3438      H3447   1.061       .  S
C3439      C3440   1.412       .  A
C3440      H3448   1.079       .  S
C3449      C3450   1.398       .  A
C3449      C3454   1.402       .  A
C3449      H3465   1.084       .  S
C3450      C3451   1.404       .  A
C3450      H3466   1.079       .  S
C3451      C3461   1.401       .  A
C3451      C3452   1.409       .  A
C3452      C3458   1.407       .  A
C3452      C3453   1.399       .  A
C3453      C3455   1.407       .  A
C3453      C3454   1.411       .  A
C3454      C3462   1.399       .  A
C3455      C3464   1.381       .  A
C3455      C3456   1.399       .  A
C3456      C3457   1.387       .  A
C3456      H3467   1.084       .  S
C3457      C3458   1.398       .  A
C3457      H3468   1.081       .  S
C3458      C3459   1.382       .  A
C3459      C3460   1.397       .  A
C3459      H3469   1.072       .  S
C3460      C3461   1.406       .  A
C3461      H3470   1.083       .  S
C3462      C3463   1.405       .  A
C3462      H3471   1.080       .  S
C3463      C3464   1.403       .  A
C3464      H3472   1.078       .  S
N3473      C3477   1.379       .  A
N3473      C3474   1.372       .  A
N3473      C3956   1.434       .  S
C3474      C3475   1.388       .  A
C3474      C3612   1.537       .  S
C3475      C3476   1.390       .  A
C3476      C3477   1.383       .  A
C3477      C3570   1.521       .  S
N3480      C3481   1.361       .  A
N3480      C3932   1.414       .  S
C3481      C3556   1.534       .  S
C3482      H3485   1.081       .  S
C3483      H3486   1.082       .  S
C3484      C3678   1.512       .  S
N3487      C3491   1.362       .  A
N3487      C3488   1.359       .  A
N3487      C3908   1.409       .  S
C3488      C3489   1.388       .  A
C3488      C3675   1.532       .  S
C3489      C3490   1.397       .  A
C3489      H3492   1.082       .  S
C3490      C3491   1.382       .  A
C3490      H3493   1.079       .  S
C3491      C3627   1.513       .  S
C3494      C3495   1.403       .  A
C3494      C3499   1.383       .  A
C3494      C3959   1.473       .  S
C3495      C3496   1.401       .  A
C3495      H3500   1.079       .  S
C3496      C3497   1.405       .  A
C3496      C3935   1.485       .  S
C3497      C3498   1.389       .  A
C3497      H3501   1.075       .  S
C3498      C3499   1.395       .  A
C3498      C3911   1.478       .  S
C3499      H3502   1.078       .  S
O3503      C3518   1.256       .  A
O3503     Al3511   1.875       .  S
C3504      C3540   1.539       .  S
C3504      O3514   1.267       .  A
C3504      O3505   1.285       .  A
O3505     Al3507   2.033       .  S
O3506      C3508   1.268       .  A
O3506     Al3507   1.906       .  S
Al3507     O3515   1.889       .  S
Al3507     O3517   2.019       .  S
Al3507     O3516   1.793       .  S
C3508      C3644   1.523       .  S
C3508      O3521   1.279       .  A
O3509      C3519   1.264       .  A
O3509     Al3511   1.897       .  S
O3510      C3523   1.264       .  A
O3510     Al3520   1.893       .  S
Al3511     O3524   2.008       .  S
Al3511     O3521   2.001       .  S
Al3511     O3516   1.786       .  S
O3512      C3519   1.282       .  A
O3512     Al3520   2.014       .  S
O3513      C3522   1.283       .  A
O3513     Al3520   2.020       .  S
O3514     Al3520   1.908       .  S
O3515      C3522   1.259       .  A
O3516     Al3520   1.795       .  S
O3517      C3518   1.280       .  A
C3518      C3536   1.519       .  S
C3519      C3592   1.519       .  S
C3522      C3588   1.520       .  S
C3523      C3640   1.518       .  S
C3523      O3524   1.279       .  A
N3525      C3529   1.366       .  A
N3525      C3526   1.361       .  A
N3525      C3884   1.408       .  S
C3526      C3527   1.387       .  A
C3527      C3528   1.397       .  A
C3527      H3530   1.082       .  S
C3528      C3529   1.385       .  A
C3528      H3531   1.077       .  S
C3529      C3575   1.524       .  S
N3532      C3536   1.378       .  A
N3532      C3533   1.375       .  A
N3532      C3863   1.433       .  S
C3533      C3534   1.389       .  A
C3533      C3560   1.541       .  S
C3534      C3535   1.390       .  A
C3534      H3537   1.082       .  S
C3535      C3536   1.382       .  A
C3535      H3538   1.082       .  S
N3539      C3543   1.371       .  A
N3539      C3540   1.365       .  A
N3539      C3836   1.418       .  S
C3540      C3541   1.388       .  A
C3541      C3542   1.396       .  A
C3541      H3544   1.082       .  S
C3542      C3543   1.383       .  A
C3542      H3545   1.081       .  S
C3543      C3679   1.521       .  S
C3546      C3547   1.397       .  A
C3546      C3551   1.397       .  A
C3546      C3887   1.492       .  S
C3547      H3552   1.074       .  S
C3548      C3549   1.396       .  A
C3548      C3839   1.476   1_554  S
C3549      C3550   1.397       .  A
C3549      H3553   1.080   1_554  S
C3550      C3860   1.472       .  S
C3551      H3554   1.077       .  S
O3555      C3570   1.257       .  A
O3555     Al3563   1.874       .  S
C3556      O3566   1.266       .  A
C3556      O3557   1.285       .  A
O3557     Al3559   2.028       .  S
O3558      C3560   1.270       .  A
O3558     Al3559   1.913       .  S
Al3559     O3567   1.886       .  S
Al3559     O3569   2.022       .  S
O3561      C3571   1.265       .  A
O3561     Al3563   1.904       .  S
O3562      C3575   1.262       .  A
O3562     Al3572   1.891       .  S
Al3563     O3576   2.020       .  S
Al3563     O3573   2.015       .  S
Al3563     O3568   1.791       .  S
O3564      C3571   1.279       .  A
O3564     Al3572   2.001       .  S
O3565      C3574   1.277       .  A
O3568     Al3572   1.799       .  S
C3571      C3578   1.514       .  S
C3575      O3576   1.282       .  A
N3577      C3578   1.356       .  A
C3578      C3579   1.386       .  A
C3579      C3580   1.389       .  A
C3579      H3582   1.081       .  S
C3580      H3583   1.082       .  S
C3581      C3626   1.505       .  S
N3584      C3588   1.374       .  A
N3584      C3585   1.361       .  A
N3584      C3791   1.420       .  S
C3585      C3586   1.386       .  A
C3585      C3623   1.523       .  S
C3586      C3587   1.390       .  A
C3586      H3589   1.080       .  S
C3587      C3588   1.383       .  A
C3587      H3590   1.082       .  S
N3591      C3595   1.362       .  A
N3591      C3592   1.357       .  A
N3591      C3767   1.413       .  S
C3592      C3593   1.386       .  A
C3593      C3594   1.391       .  A
C3593      H3596   1.082       .  S
C3594      C3595   1.385       .  A
C3594      H3597   1.081       .  S
C3598      C3599   1.407       .  A
C3598      C3603   1.412       .  A
C3598      C3815   1.493       .  S
C3599      C3600   1.399       .  A
C3599      H3604   1.081       .  S
C3600      C3601   1.382       .  A
C3600      C3788   1.492       .  S
C3601      C3602   1.399       .  A
C3601      H3605   1.078       .  S
C3602      C3603   1.406       .  A
C3602      C3764   1.503       .  S
C3603      H3606   1.079       .  S
O3607      C3622   1.262       .  A
O3607     Al3615   1.888       .  S
C3608      C3630   1.541       .  S
C3608      O3618   1.266       .  A
C3608      O3609   1.287       .  A
O3609     Al3611   2.038       .  S
O3610      C3612   1.270       .  A
O3610     Al3611   1.907       .  S
Al3611     O3619   1.875       .  S
Al3611     O3621   2.005       .  S
Al3611     O3620   1.799       .  S
C3612      O3625   1.277       .  A
O3613      C3623   1.268       .  A
O3613     Al3615   1.918       .  S
O3614      C3627   1.263       .  A
O3614     Al3624   1.885       .  S
Al3615     O3628   1.997       .  S
Al3615     O3625   1.999       .  S
Al3615     O3620   1.798       .  S
O3616      C3623   1.281       .  A
O3616     Al3624   2.006       .  S
O3617      C3626   1.280       .  A
O3617     Al3624   2.002       .  S
O3618     Al3624   1.897       .  S
O3619      C3626   1.258       .  A
O3620     Al3624   1.798       .  S
O3621      C3622   1.281       .  A
C3627      O3628   1.277       .  A
N3629      C3633   1.360       .  A
N3629      C3630   1.363       .  A
N3629      C3743   1.409       .  S
C3630      C3631   1.388       .  A
C3631      C3632   1.398       .  A
C3631      H3634   1.082       .  S
C3632      C3633   1.385       .  A
C3632      H3635   1.082       .  S
C3633      C3674   1.510       .  S
N3636      C3640   1.362       .  A
N3636      C3637   1.357       .  A
N3636      C3716   1.407       .  S
C3637      C3638   1.388       .  A
C3638      C3639   1.398       .  A
C3639      C3640   1.385       .  A
C3639      H3642   1.079       .  S
N3643      C3647   1.366       .  A
N3643      C3644   1.358       .  A
N3643      C3695   1.417   1_556  S
C3644      C3645   1.384       .  A
C3645      C3646   1.393       .  A
C3645      H3648   1.078       .  S
C3646      C3647   1.383       .  A
C3646      H3649   1.082       .  S
C3650      C3651   1.386       .  A
C3650      C3655   1.401   1_565  A
C3650      C3692   1.474       .  S
C3651      C3652   1.394   1_565  A
C3651      H3656   1.080       .  S
C3652      C3719   1.477       .  S
C3653      C3654   1.409       .  A
C3653      H3657   1.075       .  S
C3654      C3740   1.483       .  S
C3655      H3658   1.080       .  S
O3659      C3674   1.262       .  A
O3659     Al3667   1.897       .  S
C3660      O3670   1.270       .  A
C3660      O3661   1.280       .  A
O3662      C3664   1.270       .  A
O3662     Al3663   1.914       .  S
Al3663     O3671   1.896   1_455  S
Al3663     O3673   1.985   1_455  S
C3664      O3677   1.288   1_455  A
O3665      C3675   1.267       .  A
O3666      C3679   1.258       .  A
O3666     Al3676   1.869       .  S
Al3667     O3677   2.036       .  S
O3668      C3675   1.282       .  A
O3668     Al3676   2.016       .  S
O3669     Al3676   2.007       .  S
O3670     Al3676   1.913   1_455  S
O3671      C3678   1.261       .  A
O3672     Al3676   1.796       .  S
O3673      C3674   1.274       .  A
C3679      O3680   1.283       .  A
C3681      C3686   1.403       .  A
C3681      H3697   1.081   1_554  S
C3682      C3683   1.402       .  A
C3682      H3698   1.084       .  S
C3683      C3693   1.396       .  A
C3683      C3684   1.411       .  A
C3684      C3690   1.405       .  A
C3685      C3687   1.412       .  A
C3685      C3686   1.409       .  A
C3686      C3694   1.394       .  A
C3687      C3696   1.386       .  A
C3687      C3688   1.399       .  A
C3688      H3699   1.083       .  S
C3689      C3690   1.401       .  A
C3689      H3700   1.084       .  S
C3690      C3691   1.380       .  A
C3691      C3692   1.404       .  A
C3691      H3701   1.075       .  S
C3692      C3693   1.403       .  A
C3693      H3702   1.079       .  S
C3694      C3695   1.401       .  A
C3694      H3703   1.084   1_554  S
C3695      C3696   1.388       .  A
C3696      H3704   1.073       .  S
C3705      C3706   1.397       .  A
C3705      C3710   1.402       .  A
C3706      C3707   1.400   1_545  A
C3706      H3722   1.083       .  S
C3707      C3717   1.393       .  A
C3707      C3708   1.412       .  A
C3708      C3714   1.409       .  A
C3708      C3709   1.393       .  A
C3709      C3711   1.405       .  A
C3709      C3710   1.410   1_565  A
C3710      C3718   1.395       .  A
C3711      C3720   1.376       .  A
C3711      C3712   1.401       .  A
C3712      C3713   1.387       .  A
C3712      H3723   1.084       .  S
C3713      C3714   1.398       .  A
C3713      H3724   1.084       .  S
C3714      C3715   1.377       .  A
C3715      C3716   1.384       .  A
C3715      H3725   1.069       .  S
C3716      C3717   1.397       .  A
C3717      H3726   1.084       .  S
C3718      C3719   1.407       .  A
C3719      C3720   1.408   1_545  A
C3720      H3728   1.079       .  S
C3729      C3730   1.379       .  A
C3729      C3734   1.393       .  A
C3729      H3745   1.081       .  S
C3730      C3731   1.397       .  A
C3730      H3746   1.084       .  S
C3731      C3741   1.366       .  A
C3731      C3732   1.402       .  A
C3732      C3738   1.407       .  A
C3732      C3733   1.389       .  A
C3733      C3735   1.409       .  A
C3733      C3734   1.406       .  A
C3734      C3742   1.370       .  A
C3735      C3744   1.398       .  A
C3735      C3736   1.401       .  A
C3736      C3737   1.399       .  A
C3736      H3747   1.077       .  S
C3737      C3738   1.404       .  A
C3738      C3739   1.397       .  A
C3739      C3740   1.415       .  A
C3740      C3741   1.397       .  A
C3741      H3750   1.064       .  S
C3742      C3743   1.384       .  A
C3742      H3751   1.084       .  S
C3743      C3744   1.401       .  A
C3744      H3752   1.084       .  S
C3753      C3754   1.390       .  A
C3753      H3769   1.084       .  S
C3754      C3755   1.403       .  A
C3754      H3770   1.084       .  S
C3755      C3765   1.382       .  A
C3756      C3762   1.409       .  A
C3756      C3757   1.397       .  A
C3757      C3759   1.409       .  A
C3757      C3758   1.414   1_565  A
C3758      C3766   1.388       .  A
C3759      C3768   1.389       .  A
C3759      C3760   1.402       .  A
C3760      C3761   1.395       .  A
C3760      H3771   1.084       .  S
C3761      C3762   1.403       .  A
C3761      H3772   1.084       .  S
C3762      C3763   1.394       .  A
C3763      H3773   1.077       .  S
C3764      C3765   1.415       .  A
C3765      H3774   1.074       .  S
C3766      C3767   1.393   1_545  A
C3766      H3775   1.085       .  S
C3767      C3768   1.398       .  A
C3768      H3776   1.080       .  S
C3777      C3778   1.390       .  A
C3777      C3782   1.397       .  A
C3777      H3793   1.080       .  S
C3778      C3779   1.401       .  A
C3778      H3794   1.084       .  S
C3779      C3789   1.381       .  A
C3779      C3780   1.405       .  A
C3780      C3786   1.410       .  A
C3780      C3781   1.397       .  A
C3781      C3783   1.409       .  A
C3781      C3782   1.411       .  A
C3782      C3790   1.385       .  A
C3783      C3792   1.394       .  A
C3783      C3784   1.404       .  A
C3784      C3785   1.400       .  A
C3784      H3795   1.083       .  S
C3785      C3786   1.402       .  A
C3785      H3796   1.084       .  S
C3786      C3787   1.401       .  A
C3787      C3788   1.408       .  A
C3787      H3797   1.083       .  S
C3788      C3789   1.410       .  A
C3789      H3798   1.079       .  S
C3790      C3791   1.392       .  A
C3790      H3799   1.083       .  S
C3791      C3792   1.404       .  A
C3792      H3800   1.081       .  S
C3801      C3802   1.394       .  A
C3801      C3806   1.404       .  A
C3801      H3817   1.084       .  S
C3802      C3803   1.400       .  A
C3802      H3818   1.084   1_556  S
C3803      C3804   1.414       .  A
C3804      C3810   1.407       .  A
C3804      C3805   1.401       .  A
C3805      C3807   1.411       .  A
C3805      C3806   1.403       .  A
C3806      C3814   1.387       .  A
C3807      C3816   1.400       .  A
C3807      C3808   1.403       .  A
C3808      C3809   1.398       .  A
C3808      H3819   1.084       .  S
C3809      C3810   1.402       .  A
C3809      H3820   1.084       .  S
C3811      C3812   1.399       .  A
C3811      H3821   1.079       .  S
C3812      C3813   1.396       .  A
C3814      C3815   1.413       .  A
C3814      H3823   1.075       .  S
C3815      C3816   1.411       .  A
C3816      H3824   1.083       .  S
C3825      C3826   1.389       .  A
C3825      C3830   1.401       .  A
C3825      H3841   1.084       .  S
C3826      C3827   1.400       .  A
C3826      H3842   1.084       .  S
C3827      C3837   1.382       .  A
C3827      C3828   1.410       .  A
C3828      C3834   1.411       .  A
C3828      C3829   1.395       .  A
C3829      C3831   1.409       .  A
C3829      C3830   1.406       .  A
C3830      C3838   1.382       .  A
C3831      C3840   1.394       .  A
C3831      C3832   1.402       .  A
C3832      C3833   1.396       .  A
C3832      H3843   1.083       .  S
C3833      C3834   1.401       .  A
C3833      H3844   1.083       .  S
C3834      C3835   1.394       .  A
C3835      C3836   1.398       .  A
C3835      H3845   1.084       .  S
C3836      C3837   1.392       .  A
C3837      H3846   1.074       .  S
C3838      C3839   1.409       .  A
C3838      H3847   1.082       .  S
C3839      C3840   1.403       .  A
C3840      H3848   1.078       .  S
C3849      C3854   1.402   1_554  A
C3850      H3866   1.084       .  S
C3851      C3852   1.409   1_554  A
C3852      C3858   1.408       .  A
C3852      C3853   1.397       .  A
C3853      C3855   1.406       .  A
C3853      C3854   1.410       .  A
C3854      C3862   1.401       .  A
C3855      C3864   1.379       .  A
C3855      C3856   1.399       .  A
C3856      C3857   1.386       .  A
C3856      H3867   1.082       .  S
C3857      C3858   1.398       .  A
C3857      H3868   1.084       .  S
C3858      C3859   1.379       .  A
C3862      C3863   1.404       .  A
C3862      H3871   1.083       .  S
C3863      C3864   1.397       .  A
C3864      H3872   1.070       .  S
C3873      C3874   1.396       .  A
C3873      H3889   1.084       .  S
C3874      C3875   1.398       .  A
C3874      H3890   1.082   1_565  S
C3875      C3876   1.411       .  A
C3877      C3879   1.404       .  A
C3877      C3878   1.408       .  A
C3878      C3886   1.394       .  A
C3879      C3888   1.382       .  A
C3879      C3880   1.403   1_655  A
C3880      C3881   1.390       .  A
C3880      H3891   1.084       .  S
C3881      C3882   1.399       .  A
C3881      H3892   1.084       .  S
C3883      H3893   1.074       .  S
C3884      C3885   1.394       .  A
C3885      H3894   1.085       .  S
C3886      C3887   1.410       .  A
C3886      H3895   1.079       .  S
C3887      C3888   1.414       .  A
C3888      H3896   1.078       .  S
C3897      C3898   1.394       .  A
C3897      H3913   1.084       .  S
C3898      C3899   1.400       .  A
C3898      H3914   1.079       .  S
C3899      C3909   1.394       .  A
C3899      C3900   1.412       .  A
C3900      C3906   1.409       .  A
C3901      C3903   1.406       .  A
C3901      C3902   1.409       .  A
C3902      C3910   1.392       .  A
C3903      C3912   1.378       .  A
C3903      C3904   1.400       .  A
C3904      C3905   1.386       .  A
C3904      H3915   1.084       .  S
C3905      H3916   1.084       .  S
C3906      C3907   1.376       .  A
C3907      C3908   1.384       .  A
C3907      H3917   1.068       .  S
C3908      C3909   1.397       .  A
C3909      H3918   1.084       .  S
C3910      C3911   1.406       .  A
C3910      H3919   1.080       .  S
C3911      C3912   1.408       .  A
C3912      H3920   1.079       .  S
C3921      C3922   1.383       .  A
C3921      C3926   1.399       .  A
C3921      H3937   1.084       .  S
C3922      C3923   1.396       .  A
C3922      H3938   1.080       .  S
C3923      C3933   1.378       .  A
C3923      C3924   1.408       .  A
C3924      C3930   1.408       .  A
C3924      C3925   1.393       .  A
C3925      C3927   1.409       .  A
C3925      C3926   1.402       .  A
C3926      C3934   1.373       .  A
C3927      C3936   1.396       .  A
C3927      C3928   1.403       .  A
C3928      C3929   1.397       .  A
C3928      H3939   1.084       .  S
C3929      C3930   1.400       .  A
C3929      H3940   1.080       .  S
C3930      C3931   1.393       .  A
C3931      C3932   1.399       .  A
C3931      H3941   1.082       .  S
C3932      C3933   1.390       .  A
C3933      H3942   1.084       .  S
C3934      C3935   1.400       .  A
C3934      H3943   1.061       .  S
C3935      C3936   1.412       .  A
C3936      H3944   1.079       .  S
C3945      C3946   1.398       .  A
C3945      C3950   1.402       .  A
C3945      H3961   1.084       .  S
C3946      C3947   1.404       .  A
C3946      H3962   1.079       .  S
C3947      C3957   1.401       .  A
C3947      C3948   1.409       .  A
C3948      C3954   1.407       .  A
C3948      C3949   1.399       .  A
C3949      C3951   1.407       .  A
C3949      C3950   1.411       .  A
C3950      C3958   1.399       .  A
C3951      C3960   1.381       .  A
C3951      C3952   1.399       .  A
C3952      C3953   1.387       .  A
C3952      H3963   1.084       .  S
C3953      C3954   1.398       .  A
C3953      H3964   1.081       .  S
C3954      C3955   1.382       .  A
C3955      C3956   1.397       .  A
C3955      H3965   1.072       .  S
C3956      C3957   1.406       .  A
C3957      H3966   1.083       .  S
C3958      C3959   1.405       .  A
C3958      H3967   1.080       .  S
C3959      C3960   1.403       .  A
C3960      H3968   1.078       .  S
