geometry optimzed in LAMMPS
_audit_creation_date              2020-11-30 
_audit_creation_method            'lammps2cif' 
_symmetry_space_group_name_H-M    'P1' 
_symmetry_Int_Tables_number       1 
_symmetry_cell_setting            triclinic 
loop_ 
_symmetry_equiv_pos_as_xyz 
  x,y,z 
_cell_length_a                    66.96935344 
_cell_length_b                    67.16892770089346 
_cell_length_c                    66.9833734830399 
_cell_angle_alpha                 90.05237749130315 
_cell_angle_beta                  89.96877905792344 
_cell_angle_gamma                 89.88021890879246 
loop_ 
_atom_site_label 
_atom_site_type_symbol 
_atom_site_fract_x 
_atom_site_fract_y 
_atom_site_fract_z 
_atom_site_charge 
N1          N  0.61793685  0.12882846  0.86858065    -0.27000
N2          N  0.61812040  0.11508592  0.85444228    -0.34900
C3          C  0.61853406  0.09700089  0.86292633     0.01300
C4          C  0.61830178  0.09946173  0.88337904     0.07400
C5          C  0.61790175  0.11981460  0.88650760    -0.05700
H6          H  0.61919901  0.08308976  0.85478624     0.08000
H7          H  0.61839427  0.12749507  0.90070310     0.09200
Cu8        Cu  0.61888049  0.12118378  0.82427297     0.44200
Cu9        Cu  0.61958798  0.15900873  0.86264948     0.42000
Cu10       Cu  0.62261073  0.17248436  0.80998947     0.43900
N11         N  0.62314041  0.13023497  0.79516586    -0.34400
N12         N  0.62499436  0.14910396  0.78995667    -0.28700
C13         C  0.62969017  0.15004409  0.77047605    -0.04800
C14         C  0.63074670  0.13081379  0.76307058     0.07500
C15         C  0.62634753  0.11864359  0.77911109     0.01300
H16         H  0.63234053  0.16372268  0.76239455     0.08900
H17         H  0.62635526  0.10253271  0.77932510     0.08000
N18         N  0.62372464  0.19278383  0.83323919    -0.35800
N19         N  0.62304543  0.18782723  0.85232022    -0.28000
C20         C  0.62602219  0.20417741  0.86347668    -0.03300
C21         C  0.62879145  0.22024395  0.85082629     0.05300
C22         C  0.62703612  0.21245428  0.83176109     0.03400
H23         H  0.62629797  0.20420647  0.87961343     0.08500
H24         H  0.62892902  0.22031032  0.81779663     0.07400
N25         N  0.91919445  0.13600165  0.57378793    -0.27000
N26         N  0.90567272  0.12240557  0.56932338    -0.34900
C27         C  0.91459526  0.10449358  0.56813122     0.01300
C28         C  0.93466516  0.10691667  0.57228645     0.07400
C29         C  0.93705983  0.12705336  0.57590912    -0.05700
H30         H  0.90697691  0.09069324  0.56480640     0.08000
H31         H  0.95082784  0.13468620  0.57945387     0.09200
Cu32       Cu  0.87562610  0.12885072  0.56615179     0.44200
Cu33       Cu  0.91250947  0.16606095  0.57628965     0.42000
Cu34       Cu  0.86060323  0.18074773  0.57045306     0.43900
N35         N  0.84626797  0.13847630  0.56650014    -0.34400
N36         N  0.84078010  0.15736039  0.56763403    -0.28700
C37         C  0.82079920  0.15833018  0.56918223    -0.04800
C38         C  0.81337084  0.13912763  0.56930410     0.07500
C39         C  0.82994611  0.12692751  0.56747240     0.01300
H40         H  0.81243052  0.17195643  0.57140284     0.08900
H41         H  0.83026022  0.11082946  0.56748912     0.08000
N42         N  0.88328204  0.20031736  0.57765822    -0.35800
N43         N  0.90220371  0.19500583  0.57953094    -0.28000
C44         C  0.91286920  0.21083330  0.58555515    -0.03300
C45         C  0.90001588  0.22684343  0.58777623     0.05300
C46         C  0.88136394  0.21960929  0.58265571     0.03400
H47         H  0.92861577  0.21036720  0.58909759     0.08500
H48         H  0.86733592  0.22761781  0.58299589     0.07400
N49         N  0.87868709  0.40731810  0.81934661    -0.27000
N50         N  0.89807999  0.40895603  0.82248842    -0.34900
C51         C  0.90753401  0.40980615  0.80477977     0.01300
C52         C  0.89335357  0.40845834  0.78979643     0.07400
C53         C  0.87524659  0.40690686  0.79962156    -0.05700
H54         H  0.92358669  0.40998412  0.80299242     0.08000
H55         H  0.86068755  0.40481568  0.79295762     0.09200
Cu56       Cu  0.91057961  0.40719213  0.85068530     0.44200
Cu57       Cu  0.85793843  0.40368542  0.84182528     0.42000
Cu58       Cu  0.87644245  0.39371160  0.89121719     0.43900
N59         N  0.91905649  0.40342639  0.88017093    -0.34400
N60         N  0.90684357  0.39798109  0.89468734    -0.28700
C61         C  0.91702009  0.39752533  0.91195966    -0.04800
C62         C  0.93651677  0.40316937  0.90820373     0.07500
C63         C  0.93728696  0.40669405  0.88785966     0.01300
H64         H  0.91045546  0.39421095  0.92634007     0.08900
H65         H  0.95006664  0.41145150  0.87923179     0.08000
N66         N  0.84635764  0.39493656  0.88430646    -0.35800
N67         N  0.83970854  0.39917960  0.86624069    -0.28000
C68         C  0.81969356  0.39993877  0.86660954    -0.03300
C69         C  0.81336840  0.39586615  0.88582830     0.05300
C70         C  0.83068999  0.39273039  0.89668466     0.03400
H71         H  0.81043006  0.40295216  0.85372524     0.08500
H72         H  0.83189165  0.38950717  0.91245182     0.07400
N73         N  0.62639028  0.39287774  0.88543539    -0.27000
N74         N  0.63960134  0.40555500  0.89270450    -0.34900
C75         C  0.63087010  0.42338909  0.89528597     0.01300
C76         C  0.61117797  0.42196123  0.88930025     0.07400
C77         C  0.60887968  0.40242614  0.88302892    -0.05700
H78         H  0.63846202  0.43649074  0.90079108     0.08000
H79         H  0.59538671  0.39557103  0.87741847     0.09200
Cu80       Cu  0.66895788  0.39843766  0.89869053     0.44200
Cu81       Cu  0.63276944  0.36305820  0.87993522     0.42000
Cu82       Cu  0.68149256  0.34686235  0.89833226     0.43900
N83         N  0.69754708  0.38807577  0.90350911    -0.34400
N84         N  0.70207581  0.36895103  0.90411267    -0.28700
C85         C  0.72199073  0.36693555  0.90536716    -0.04800
C86         C  0.73042492  0.38572487  0.90526275     0.07500
C87         C  0.71444511  0.39878692  0.90419198     0.01300
H88         H  0.72982331  0.35285305  0.90446788     0.08900
H89         H  0.71503707  0.41481864  0.90285070     0.08000
N90         N  0.66064876  0.32811689  0.88564198    -0.35800
N91         N  0.64333354  0.33397584  0.87816917    -0.28000
C92         C  0.63414832  0.31817314  0.86993701    -0.03300
C93         C  0.64626356  0.30162300  0.87245369     0.05300
C94         C  0.66287307  0.30848836  0.88253678     0.03400
H95         H  0.61956070  0.31864804  0.86303419     0.08500
H96         H  0.67581960  0.29992630  0.88700846     0.07400
N97         N  0.93884958  0.39535495  0.60439302    -0.27000
N98         N  0.93434655  0.40991559  0.61693448    -0.34900
C99         C  0.93612187  0.42741856  0.60734972     0.01300
C100        C  0.94228454  0.42368795  0.58795331     0.07400
C101        C  0.94384800  0.40320212  0.58663732    -0.05700
H102        H  0.93284821  0.44178058  0.61392994     0.08000
H103        H  0.94728360  0.39454352  0.57344684     0.09200
Cu104      Cu  0.92531146  0.40538955  0.64629211     0.44200
Cu105      Cu  0.93555454  0.36536693  0.61066043     0.42000
Cu106      Cu  0.91259277  0.35423600  0.65733920     0.43900
N107        N  0.91653702  0.39557788  0.67438196    -0.34400
N108        N  0.91150856  0.37690750  0.67798856    -0.28700
C109        C  0.90636423  0.37503270  0.69722781    -0.04800
C110        C  0.90820273  0.39340086  0.70631924     0.07500
C111        C  0.91485130  0.40609837  0.69143549     0.01300
H112        H  0.90201058  0.36114893  0.70413001     0.08900
H113        H  0.91797171  0.42184104  0.69282451     0.08000
N114        N  0.91735079  0.33312224  0.63557241    -0.35800
N115        N  0.92649639  0.33700772  0.61855473    -0.28000
C116        C  0.92703937  0.32034575  0.60744169    -0.03300
C117        C  0.91756689  0.30534054  0.61794011     0.05300
C118        C  0.91167852  0.31396381  0.63575546     0.03400
H119        H  0.93303563  0.31946962  0.59245959     0.08500
H120        H  0.90369191  0.30694961  0.64789096     0.07400
N121        N  0.64690983  0.10191963  0.65000388    -0.27000
N122        N  0.66587470  0.10612554  0.65334334    -0.34900
C123        C  0.66846293  0.10997678  0.67282965     0.01300
C124        C  0.65026996  0.10795040  0.68234980     0.07400
C125        C  0.63690914  0.10277928  0.66742417    -0.05700
H126        H  0.68245920  0.11456464  0.67943911     0.08000
H127        H  0.62092347  0.10104377  0.66887861     0.09200
Cu128      Cu  0.68706005  0.10848991  0.63120229     0.44200
Cu129      Cu  0.63539188  0.09824612  0.62145086     0.42000
Cu130      Cu  0.66926983  0.11278702  0.58091004     0.43900
N131        N  0.70560177  0.11313628  0.60715355    -0.34400
N132        N  0.69914896  0.11569366  0.58869408    -0.28700
C133        C  0.71486636  0.11974012  0.57684460    -0.04800
C134        C  0.73195737  0.11946231  0.58848188     0.07500
C135        C  0.72552642  0.11515879  0.60756767     0.01300
H136        H  0.71393529  0.12252430  0.56096899     0.08900
H137        H  0.73458086  0.11419803  0.62091306     0.08000
N138        N  0.63925959  0.10591232  0.57711174    -0.35800
N139        N  0.62725351  0.09982649  0.59156035    -0.28000
C140        C  0.60905109  0.09627496  0.58385383    -0.03300
C141        C  0.60955957  0.10046201  0.56361679     0.05300
C142        C  0.62894014  0.10658299  0.55991704     0.03400
H143        H  0.59622763  0.09170508  0.59252850     0.08500
H144        H  0.63514312  0.11115245  0.54572433     0.07400
N145        N  0.19612659  0.41227164  0.83817133    -0.27000
N146        N  0.19179177  0.41259289  0.85742099    -0.34900
C147        C  0.20877525  0.41183253  0.86807561     0.01300
C148        C  0.22470692  0.41120551  0.85494722     0.07400
C149        C  0.21614846  0.41162071  0.83608676    -0.05700
H150        H  0.20944372  0.41170129  0.88421338     0.08000
H151        H  0.22388386  0.41078253  0.82192492     0.09200
Cu152      Cu  0.16302546  0.41416011  0.86838888     0.44200
Cu153      Cu  0.17407011  0.41167308  0.81605728     0.42000
Cu154      Cu  0.12225757  0.41655627  0.83292842     0.43900
N155        N  0.13338227  0.41646963  0.87650729    -0.34400
N156        N  0.11835542  0.41677355  0.86371081    -0.28700
C157        C  0.10109164  0.41757711  0.87398986    -0.04800
C158        C  0.10560806  0.41812268  0.89414208     0.07500
C159        C  0.12616933  0.41746226  0.89519021     0.01300
H160        H  0.08639932  0.41801992  0.86729916     0.08900
H161        H  0.13523007  0.41734564  0.90856234     0.08000
N162        N  0.13062375  0.41465519  0.80309179    -0.35800
N163        N  0.14926475  0.41202243  0.79704543    -0.28000
C164        C  0.14932955  0.40983095  0.77706093    -0.03300
C165        C  0.12986619  0.41137765  0.77014307     0.05300
C166        C  0.11844164  0.41457317  0.78708538     0.03400
H167        H  0.16261335  0.40735069  0.76820439     0.08500
H168        H  0.10235896  0.41599116  0.78781066     0.07400
N169        N  0.12184573  0.14750370  0.56493118    -0.27000
N170        N  0.13678889  0.13466956  0.56621893    -0.34900
C171        C  0.12940133  0.11609778  0.56649479     0.01300
C172        C  0.10883227  0.11727674  0.56517157     0.07400
C173        C  0.10454354  0.13739993  0.56407927    -0.05700
H174        H  0.13838512  0.10273985  0.56755439     0.08000
H175        H  0.08990743  0.14422220  0.56341279     0.09200
Cu176      Cu  0.16659913  0.14262520  0.56778111     0.44200
Cu177      Cu  0.12550788  0.17811073  0.56601615     0.42000
Cu178      Cu  0.17639110  0.19527189  0.57142422     0.43900
N179        N  0.19510493  0.15435562  0.56969302    -0.34400
N180        N  0.19862459  0.17364177  0.57129562    -0.28700
C181        C  0.21836308  0.17646387  0.57346306    -0.04800
C182        C  0.22778967  0.15806327  0.57325241     0.07500
C183        C  0.21253793  0.14439583  0.57066903     0.01300
H184        H  0.22525260  0.19089507  0.57531244     0.08900
H185        H  0.21389670  0.12833874  0.57043826     0.08000
N186        N  0.15172571  0.21410888  0.57133607    -0.35800
N187        N  0.13312198  0.20778674  0.56961695    -0.28000
C188        C  0.12063901  0.22342003  0.57123526    -0.03300
C189        C  0.13191435  0.24046779  0.57385683     0.05300
C190        C  0.15157154  0.23398263  0.57385540     0.03400
H191        H  0.10451941  0.22240606  0.57073990     0.08500
H192        H  0.16476613  0.24292359  0.57628403     0.07400
N193        N  0.42533522  0.13632924  0.87435240    -0.27000
N194        N  0.42218452  0.12262002  0.86048331    -0.34900
C195        C  0.42260510  0.10453760  0.86914177     0.01300
C196        C  0.42655898  0.10703058  0.88926684     0.07400
C197        C  0.42815082  0.12732904  0.89202691    -0.05700
H198        H  0.42034149  0.09060795  0.86134025     0.08000
H199        H  0.43057517  0.13506712  0.90598716     0.09200
Cu200      Cu  0.41808271  0.12872911  0.83026020     0.44200
Cu201      Cu  0.42467430  0.16685776  0.86983678     0.42000
Cu202      Cu  0.41685903  0.18130115  0.81962706     0.43900
N203        N  0.41574475  0.14020525  0.80147110    -0.34400
N204        N  0.41529857  0.15954397  0.79790614    -0.28700
C205        C  0.41304102  0.16259835  0.77825166    -0.04800
C206        C  0.41208385  0.14432084  0.76878637     0.07500
C207        C  0.41389295  0.13039537  0.78399998     0.01300
H208        H  0.41196007  0.17713965  0.77140981     0.08900
H209        H  0.41318154  0.11436578  0.78260451     0.08000
N210        N  0.41766901  0.20151035  0.84284995    -0.35800
N211        N  0.42105652  0.19637277  0.86156838    -0.28000
C212        C  0.41977527  0.21270409  0.87319562    -0.03300
C213        C  0.41508650  0.22878249  0.86113500     0.05300
C214        C  0.41388423  0.22112641  0.84201166     0.03400
H215        H  0.42102571  0.21268126  0.88930111     0.08500
H216        H  0.40999576  0.22911877  0.82854088     0.07400
N217        N  0.41512782  0.40183624  0.88048539    -0.27000
N218        N  0.40178149  0.41631397  0.87901444    -0.34900
C219        C  0.41145428  0.43391080  0.87885373     0.01300
C220        C  0.43186239  0.43032809  0.88003453     0.07400
C221        C  0.43353542  0.40979198  0.88103830    -0.05700
H222        H  0.40416588  0.44826723  0.87789057     0.08000
H223        H  0.44710319  0.40120061  0.88272277     0.09200
Cu224      Cu  0.37096614  0.41129609  0.87732398     0.44200
Cu225      Cu  0.40819853  0.37177083  0.88282172     0.42000
Cu226      Cu  0.35643436  0.35943545  0.88446804     0.43900
N227        N  0.34145187  0.40114850  0.87593238    -0.34400
N228        N  0.33640212  0.38239724  0.87919229    -0.28700
C229        C  0.31653288  0.38051195  0.87728820    -0.04800
C230        C  0.30850432  0.39887142  0.87241002     0.07500
C231        C  0.32478801  0.41163689  0.87165194     0.01300
H232        H  0.30856810  0.36658994  0.87879136     0.08900
H233        H  0.32456333  0.42740630  0.86839479     0.08000
N234        N  0.37884581  0.33813748  0.88531305    -0.35800
N235        N  0.39802685  0.34263545  0.88477933    -0.28000
C236        C  0.40874434  0.32569928  0.88350793    -0.03300
C237        C  0.39564497  0.30974681  0.88300188     0.05300
C238        C  0.37680716  0.31826059  0.88420160     0.03400
H239        H  0.42477502  0.32515803  0.88158467     0.08500
H240        H  0.36261114  0.31064845  0.88333718     0.07400
N241        N  0.39573858  0.12114805  0.65365232    -0.27000
N242        N  0.37875022  0.13089441  0.65615585    -0.34900
C243        C  0.37755340  0.13723448  0.67512970     0.01300
C244        C  0.39463333  0.13128113  0.68515318     0.07400
C245        C  0.40578085  0.12099474  0.67105359    -0.05700
H246        H  0.36491234  0.14525987  0.68118781     0.08000
H247        H  0.42030136  0.11422842  0.67315201     0.09200
Cu248      Cu  0.35743929  0.13504288  0.63413740     0.44200
Cu249      Cu  0.40495570  0.10969322  0.62638534     0.42000
Cu250      Cu  0.36898988  0.11677434  0.58581670     0.43900
N251        N  0.33713738  0.13544827  0.61083458    -0.34400
N252        N  0.34111475  0.12809389  0.59298633    -0.28700
C253        C  0.32478554  0.12984186  0.58138090    -0.04800
C254        C  0.30981849  0.13886848  0.59251061     0.07500
C255        C  0.31826618  0.14222812  0.61108639     0.01300
H256        H  0.32404804  0.12523993  0.56592331     0.08900
H257        H  0.31111566  0.14882807  0.62399183     0.08000
N258        N  0.39848127  0.10829487  0.58188558    -0.35800
N259        N  0.41144787  0.10515691  0.59644149    -0.28000
C260        C  0.42949207  0.10136689  0.58840049    -0.03300
C261        C  0.42779925  0.10240251  0.56781485     0.05300
C262        C  0.40793313  0.10678603  0.56428143     0.03400
H263        H  0.44304943  0.09936767  0.59694717     0.08500
H264        H  0.40093769  0.10936586  0.54995781     0.07400
N265        N  0.10394075  0.41359848  0.58404735    -0.27000
N266        N  0.09941511  0.42676333  0.59806494    -0.34900
C267        C  0.09965166  0.44510028  0.58988726     0.01300
C268        C  0.10492066  0.44329382  0.56994063     0.07400
C269        C  0.10743858  0.42313529  0.56680869    -0.05700
H270        H  0.09671591  0.45875803  0.59796395     0.08000
H271        H  0.11125773  0.41583558  0.55291019     0.09200
Cu272      Cu  0.09492572  0.41918045  0.62800024     0.44200
Cu273      Cu  0.10501938  0.38310804  0.58795279     0.42000
Cu274      Cu  0.09581090  0.36558029  0.63687806     0.43900
N275        N  0.09621749  0.40642242  0.65644100    -0.34400
N276        N  0.09697661  0.38695051  0.65935762    -0.28700
C277        C  0.10074055  0.38338001  0.67873304    -0.04800
C278        C  0.10227541  0.40137477  0.68868454     0.07500
C279        C  0.09921909  0.41570835  0.67407297     0.01300
H280        H  0.10309083  0.36870602  0.68496778     0.08900
H281        H  0.10057877  0.43165906  0.67584390     0.08000
N282        N  0.09977392  0.34649821  0.61272410    -0.35800
N283        N  0.10404068  0.35311985  0.59467167    -0.28000
C284        C  0.10823705  0.33758724  0.58269425    -0.03300
C285        C  0.10632084  0.32025015  0.59368897     0.05300
C286        C  0.10089097  0.32648571  0.61268243     0.03400
H287        H  0.11287965  0.33886806  0.56727042     0.08500
H288        H  0.09916476  0.31726948  0.62579929     0.07400
N289        N  0.41950146  0.92007988  0.86060325    -0.27000
N290        N  0.42147342  0.90599961  0.87430637    -0.34900
C291        C  0.42255699  0.91464162  0.89240543     0.01300
C292        C  0.42092214  0.93504023  0.89001515     0.07400
C293        C  0.41899590  0.93794934  0.86967975    -0.05700
H294        H  0.42433185  0.90664410  0.90631196     0.08000
H295        H  0.41788854  0.95205486  0.86196367     0.09200
Cu296      Cu  0.42279447  0.87551933  0.86834905     0.44200
Cu297      Cu  0.41874788  0.91513170  0.82998573     0.42000
Cu298      Cu  0.42833348  0.86431019  0.81662463     0.43900
N299        N  0.42508344  0.84645105  0.85755963    -0.34400
N300        N  0.42793801  0.84259908  0.83843037    -0.28700
C301        C  0.42843707  0.82279445  0.83562825    -0.04800
C302        C  0.42562173  0.81356036  0.85386455     0.07500
C303        C  0.42344254  0.82906255  0.86745663     0.01300
H304        H  0.42958014  0.81568619  0.82117436     0.08900
H305        H  0.42047090  0.82779101  0.88328332     0.08000
N306        N  0.42451090  0.88677507  0.79594153    -0.35800
N307        N  0.42030355  0.90544062  0.80056761    -0.28000
C308        C  0.41760105  0.91585163  0.78357635    -0.03300
C309        C  0.42042627  0.90303375  0.76756202     0.05300
C310        C  0.42480399  0.88478625  0.77601762     0.03400
H311        H  0.41403783  0.93155194  0.78295077     0.08500
H312        H  0.42750003  0.87090422  0.76825663     0.07400
N313        N  0.17169510  0.84622943  0.57164206    -0.27000
N314        N  0.15253389  0.85089669  0.57121004    -0.34900
C315        C  0.14176417  0.83439752  0.57498268     0.01300
C316        C  0.15491713  0.81879475  0.57831690     0.07400
C317        C  0.17373368  0.82685092  0.57610275    -0.05700
H318        H  0.12564754  0.83395911  0.57603510     0.08000
H319        H  0.18788677  0.81922787  0.57770650     0.09200
Cu320      Cu  0.14289247  0.88014235  0.56782197     0.44200
Cu321      Cu  0.19420392  0.86655600  0.56703316     0.42000
Cu322      Cu  0.18213240  0.91879782  0.56573810     0.43900
N323        N  0.13764096  0.91067396  0.56717397    -0.34400
N324        N  0.15157803  0.92459378  0.56608241    -0.28700
C325        C  0.14268574  0.94260669  0.56585811    -0.04800
C326        C  0.12223252  0.93986817  0.56706766     0.07500
C327        C  0.11962684  0.91947895  0.56796923     0.01300
H328        H  0.15056335  0.95664118  0.56533600     0.08900
H329        H  0.10560078  0.91157102  0.56900715     0.08000
N330        N  0.21125224  0.90792616  0.56597770    -0.35800
N331        N  0.21538784  0.88869182  0.56579478    -0.28000
C332        C  0.23521573  0.88611270  0.56690284    -0.03300
C333        C  0.24417376  0.90460345  0.56808286     0.05300
C334        C  0.22848030  0.91814656  0.56738459     0.03400
H335        H  0.24246623  0.87174120  0.56798300     0.08500
H336        H  0.22939761  0.93419336  0.56822999     0.07400
N337        N  0.21037590  0.60195755  0.85278634    -0.27000
N338        N  0.21327906  0.60805834  0.83426635    -0.34900
C339        C  0.23248961  0.61312931  0.83188209     0.01300
C340        C  0.24238037  0.61027736  0.84978277     0.07400
C341        C  0.22787354  0.60302591  0.86272369    -0.05700
H342        H  0.23855065  0.61937952  0.81830143     0.08000
H343        H  0.22956294  0.60007636  0.87850442     0.09200
Cu344      Cu  0.19088125  0.61236780  0.81357735     0.44200
Cu345      Cu  0.18195743  0.59512434  0.86373804     0.42000
Cu346      Cu  0.14058667  0.60346935  0.82832022     0.43900
N347        N  0.16678497  0.61775245  0.79517316    -0.34400
N348        N  0.14813757  0.61387949  0.80025258    -0.28700
C349        C  0.13604343  0.61864133  0.78493143    -0.04800
C350        C  0.14771456  0.62619027  0.76967046     0.07500
C351        C  0.16710705  0.62538742  0.77666788     0.01300
H352        H  0.11995960  0.61711010  0.78505153     0.08900
H353        H  0.18050679  0.62975861  0.76879714     0.08000
N354        N  0.13696881  0.59538836  0.85792983    -0.35800
N355        N  0.15167769  0.59198109  0.87068991    -0.28000
C356        C  0.14374960  0.58843741  0.88883702    -0.03300
C357        C  0.12316900  0.59001950  0.88744786     0.05300
C358        C  0.11944244  0.59435940  0.86763278     0.03400
H359        H  0.15237390  0.58623243  0.90231042     0.08500
H360        H  0.10507225  0.59733068  0.86087120     0.07400
N361        N  0.41421266  0.62440538  0.87864606    -0.27000
N362        N  0.42811543  0.63729554  0.87325743    -0.34900
C363        C  0.44586795  0.62783914  0.87264517     0.01300
C364        C  0.44295692  0.60812334  0.87804284     0.07400
C365        C  0.42272337  0.60656528  0.88179195    -0.05700
H366        H  0.45987655  0.63489718  0.86888140     0.08000
H367        H  0.41464723  0.59328710  0.88604328     0.09200
Cu368      Cu  0.42230555  0.66728187  0.86758377     0.44200
Cu369      Cu  0.38398599  0.63062987  0.87996889     0.42000
Cu370      Cu  0.36964778  0.68064127  0.86872930     0.43900
N371        N  0.41187396  0.69646605  0.86522909    -0.34400
N372        N  0.39273409  0.70125512  0.86638149    -0.28700
C373        C  0.39090259  0.72118056  0.86547721    -0.04800
C374        C  0.40974977  0.72941507  0.86354734     0.07500
C375        C  0.42268652  0.71326993  0.86328884     0.01300
H376        H  0.37681478  0.72907112  0.86590224     0.08900
H377        H  0.43880178  0.71372816  0.86222598     0.08000
N378        N  0.34937725  0.65719716  0.87019075    -0.35800
N379        N  0.35466163  0.63882964  0.87485224    -0.28000
C380        C  0.33860194  0.62688833  0.87362089    -0.03300
C381        C  0.32235109  0.63821917  0.86768451     0.05300
C382        C  0.32978251  0.65742398  0.86576165     0.03400
H383        H  0.33896742  0.61095271  0.87594633     0.08500
H384        H  0.32166743  0.67060861  0.86127278     0.07400
N385        N  0.12307251  0.63213934  0.59686918    -0.27000
N386        N  0.12077686  0.64619405  0.58322721    -0.34900
C387        C  0.11833588  0.63758373  0.56525527     0.01300
C388        C  0.11945386  0.61717020  0.56765188     0.07400
C389        C  0.12258181  0.61422721  0.58784980    -0.05700
H390        H  0.11650311  0.64561213  0.55137954     0.08000
H391        H  0.12413374  0.60010620  0.59546231     0.09200
Cu392      Cu  0.12291491  0.67648320  0.58916518     0.44200
Cu393      Cu  0.12588873  0.63791810  0.62721926     0.42000
Cu394      Cu  0.13107927  0.68985754  0.64051691     0.43900
N395        N  0.12936435  0.70528582  0.59844377    -0.34400
N396        N  0.13281163  0.70999342  0.61727937    -0.28700
C397        C  0.13757641  0.72937655  0.61843773    -0.04800
C398        C  0.13698879  0.73739036  0.59940814     0.07500
C399        C  0.13173544  0.72163510  0.58709008     0.01300
H400        H  0.14111123  0.73707280  0.63218203     0.08900
H401        H  0.13031009  0.72183018  0.57101221     0.08000
N402        N  0.12862834  0.66719003  0.66119828    -0.35800
N403        N  0.12668932  0.64818969  0.65646987    -0.28000
C404        C  0.12639806  0.63734278  0.67334643    -0.03300
C405        C  0.12836211  0.65015396  0.68946592     0.05300
C406        C  0.12973007  0.66895421  0.68113489     0.03400
H407        H  0.12591641  0.62125466  0.67373862     0.08500
H408        H  0.13196794  0.68288645  0.68892567     0.07400
N409        N  0.35414193  0.91536147  0.60717193    -0.27000
N410        N  0.36028955  0.91210831  0.58869887    -0.34900
C411        C  0.34432363  0.91093655  0.57660191     0.01300
C412        C  0.32734640  0.91385154  0.58800568     0.07400
C413        C  0.33411153  0.91669155  0.60729182    -0.05700
H414        H  0.34503569  0.90809667  0.56071445     0.08000
H415        H  0.32510122  0.91873043  0.62055810     0.09200
Cu416      Cu  0.39008237  0.90961427  0.58084864     0.44200
Cu417      Cu  0.37319084  0.91602971  0.63147155     0.42000
Cu418      Cu  0.42622705  0.90889134  0.62086288     0.43900
N419        N  0.42063678  0.90929780  0.57618180    -0.34400
N420        N  0.43398262  0.90846283  0.59069885    -0.28700
C421        C  0.45238900  0.90836787  0.58256581    -0.04800
C422        C  0.45048004  0.90956388  0.56198591     0.07500
C423        C  0.43013184  0.91008260  0.55851294     0.01300
H424        H  0.46615003  0.90792174  0.59101649     0.08900
H425        H  0.42272194  0.91074621  0.54418195     0.08000
N426        N  0.41424924  0.91149887  0.64950794    -0.35800
N427        N  0.39505445  0.91428997  0.65322931    -0.28000
C428        C  0.39223517  0.91517979  0.67308029    -0.03300
C429        C  0.41050638  0.91277096  0.68244196     0.05300
C430        C  0.42413981  0.91053312  0.66696972     0.03400
H431        H  0.37781010  0.91688060  0.68016120     0.08500
H432        H  0.44009486  0.90841587  0.66820192     0.07400
N433        N  0.92390246  0.90537178  0.57628046    -0.27000
N434        N  0.93875297  0.89368173  0.58202447    -0.34900
C435        C  0.95565145  0.90447851  0.58276465     0.01300
C436        C  0.95121545  0.92376620  0.57695835     0.07400
C437        C  0.93097087  0.92376853  0.57301075    -0.05700
H438        H  0.97014208  0.89863322  0.58688524     0.08000
H439        H  0.92189467  0.93631474  0.56848815     0.09200
Cu440      Cu  0.93571434  0.86337740  0.58749467     0.44200
Cu441      Cu  0.89437382  0.89673139  0.57357005     0.42000
Cu442      Cu  0.88526063  0.84518053  0.57992541     0.43900
N443        N  0.92803385  0.83341963  0.58833250    -0.34400
N444        N  0.90969557  0.82699747  0.58497472    -0.28700
C445        C  0.90949457  0.80705271  0.58594986    -0.04800
C446        C  0.92858028  0.80044935  0.59027248     0.07500
C447        C  0.93999567  0.81761924  0.59168098     0.01300
H448        H  0.89623785  0.79805177  0.58413780     0.08900
H449        H  0.95582874  0.81861134  0.59467937     0.08000
N450        N  0.86254252  0.86576201  0.57629569    -0.35800
N451        N  0.86584842  0.88494430  0.57364413    -0.28000
C452        C  0.84824723  0.89464812  0.57327611    -0.03300
C453        C  0.83311805  0.88086318  0.57599160     0.05300
C454        C  0.84279224  0.86270549  0.57784228     0.03400
H455        H  0.84669489  0.91066290  0.57250282     0.08500
H456        H  0.83603901  0.84841073  0.58092711     0.07400
N457        N  0.64183585  0.90167326  0.85790135    -0.27000
N458        N  0.63879172  0.88848844  0.87226198    -0.34900
C459        C  0.63640206  0.89822462  0.88969093     0.01300
C460        C  0.63837086  0.91843762  0.88618109     0.07400
C461        C  0.64181848  0.92005509  0.86588615    -0.05700
H462        H  0.63374059  0.89109523  0.90392253     0.08000
H463        H  0.64369566  0.93364287  0.85743262     0.09200
Cu464      Cu  0.63864242  0.85778520  0.86778757     0.44200
Cu465      Cu  0.64446186  0.89470996  0.82774377     0.42000
Cu466      Cu  0.63634235  0.84367127  0.81575909     0.43900
N467        N  0.63992112  0.82838506  0.85793508    -0.34400
N468        N  0.63865889  0.82349400  0.83887124    -0.28700
C469        C  0.64064720  0.80370297  0.83696540    -0.04800
C470        C  0.64324395  0.79552530  0.85574602     0.07500
C471        C  0.64281050  0.81168835  0.86870584     0.01300
H472        H  0.64103424  0.79603530  0.82277515     0.08900
H473        H  0.64463022  0.81137959  0.88474745     0.08000
N474        N  0.63949717  0.86541025  0.79424355    -0.35800
N475        N  0.64334876  0.88420031  0.79855297    -0.28000
C476        C  0.64645487  0.89421720  0.78143973    -0.03300
C477        C  0.64442523  0.88103770  0.76559390     0.05300
C478        C  0.63989676  0.86294242  0.77433813     0.03400
H479        H  0.65004376  0.90988858  0.78065583     0.08500
H480        H  0.63796489  0.84879502  0.76684990     0.07400
N481        N  0.91940814  0.60469447  0.80885272    -0.27000
N482        N  0.90087040  0.60246447  0.80254936    -0.34900
C483        C  0.90033436  0.60535052  0.78269038     0.01300
C484        C  0.91950722  0.60969808  0.77621773     0.07400
C485        C  0.93117432  0.60922738  0.79324986    -0.05700
H486        H  0.88687491  0.60498889  0.77378749     0.08000
H487        H  0.94706165  0.61192741  0.79425431     0.09200
Cu488      Cu  0.87723142  0.59745166  0.82182727     0.44200
Cu489      Cu  0.92767638  0.60162896  0.83842174     0.42000
Cu490      Cu  0.88936189  0.59314016  0.87529761     0.43900
N491        N  0.85629376  0.59714309  0.84459709    -0.34400
N492        N  0.86042458  0.59553931  0.86385876    -0.28700
C493        C  0.84330694  0.59739347  0.87430772    -0.04800
C494        C  0.82781126  0.60054326  0.86098145     0.07500
C495        C  0.83660792  0.60025717  0.84232666     0.01300
H496        H  0.84236776  0.59752022  0.89043268     0.08900
H497        H  0.82933293  0.60274274  0.82812681     0.08000
N498        N  0.91983666  0.59337788  0.88199223    -0.35800
N499        N  0.93362747  0.59709657  0.86836940    -0.28000
C500        C  0.95165447  0.59756325  0.87713459    -0.03300
C501        C  0.94924242  0.59383629  0.89728010     0.05300
C502        C  0.92886803  0.59111351  0.89985092     0.03400
H503        H  0.96551541  0.60050479  0.86938242     0.08500
H504        H  0.92113335  0.58843904  0.91377544     0.07400
N505        N  0.94790204  0.61252611  0.60356721    -0.27000
N506        N  0.95098727  0.62587438  0.58943139    -0.34900
C507        C  0.95301336  0.61644972  0.57180109     0.01300
C508        C  0.95090036  0.59619916  0.57504016     0.07400
C509        C  0.94759856  0.59429115  0.59533482    -0.05700
H510        H  0.95520209  0.62384701  0.55763386     0.08000
H511        H  0.94524821  0.58063761  0.60355659     0.09200
Cu512      Cu  0.95117001  0.65622369  0.59503310     0.44200
Cu513      Cu  0.94498327  0.61958238  0.63348439     0.42000
Cu514      Cu  0.95270686  0.67056018  0.64786936     0.43900
N515        N  0.95008533  0.68535609  0.60525582    -0.34400
N516        N  0.95145730  0.69055334  0.62426612    -0.28700
C517        C  0.94994039  0.71046615  0.62569042    -0.04800
C518        C  0.94719385  0.71814680  0.60673848     0.07500
C519        C  0.94735448  0.70180585  0.59414744     0.01300
H520        H  0.94988112  0.71866337  0.63960426     0.08900
H521        H  0.94545007  0.70181261  0.57810913     0.08000
N522        N  0.94891981  0.64768389  0.66834833    -0.35800
N523        N  0.94547014  0.62911350  0.66284413    -0.28000
C524        C  0.94182503  0.61806312  0.67911819    -0.03300
C525        C  0.94306287  0.63018528  0.69578581     0.05300
C526        C  0.94764741  0.64891093  0.68838373     0.03400
H527        H  0.93807558  0.60240407  0.67876220     0.08500
H528        H  0.94882035  0.66262326  0.69678317     0.07400
N529        N  0.71321722  0.62070549  0.88437589    -0.27000
N530        N  0.71858703  0.63953328  0.88222629    -0.34900
C531        C  0.73833806  0.64037070  0.87892038     0.01300
C532        C  0.74594045  0.62121210  0.87906060     0.07400
C533        C  0.72957934  0.60909234  0.88263990    -0.05700
H534        H  0.74649770  0.65397889  0.87615508     0.08000
H535        H  0.72938705  0.59299067  0.88296054     0.09200
Cu536      Cu  0.69922454  0.66365195  0.88189593     0.44200
Cu537      Cu  0.68359560  0.61157659  0.88744499     0.42000
Cu538      Cu  0.64776819  0.65130589  0.87836411     0.43900
N539        N  0.67711529  0.68496808  0.87826047    -0.34400
N540        N  0.65811487  0.68023850  0.87602078    -0.28700
C541        C  0.64749978  0.69689657  0.87254924    -0.04800
C542        C  0.66043298  0.71291978  0.87295247     0.07500
C543        C  0.67910272  0.70483221  0.87660205     0.01300
H544        H  0.63154958  0.69732231  0.87003601     0.08900
H545        H  0.69315319  0.71271520  0.87735067     0.08000
N546        N  0.63993603  0.62189193  0.88323800    -0.35800
N547        N  0.65271504  0.60738264  0.88720323    -0.28000
C548        C  0.64243551  0.59031192  0.88969815    -0.03300
C549        C  0.62230439  0.59431156  0.88687776     0.05300
C550        C  0.62133529  0.61447040  0.88287136     0.03400
H551        H  0.64915887  0.57594709  0.89262285     0.08500
H552        H  0.60805835  0.62316092  0.87986127     0.07400
N553        N  0.72194753  0.89978145  0.61062854    -0.27000
N554        N  0.71769432  0.90245709  0.59156131    -0.34900
C555        C  0.73469623  0.90137345  0.58084677     0.01300
C556        C  0.75031530  0.89749579  0.59383823     0.07400
C557        C  0.74165641  0.89668618  0.61257816    -0.05700
H558        H  0.73547568  0.90227271  0.56473539     0.08000
H559        H  0.74904783  0.89364183  0.62660256     0.09200
Cu560      Cu  0.68858465  0.90513774  0.58142104     0.44200
Cu561      Cu  0.70074869  0.89891526  0.63312013     0.42000
Cu562      Cu  0.64914818  0.90220330  0.62007678     0.43900
N563        N  0.65814477  0.90640921  0.57593055    -0.34400
N564        N  0.64408062  0.90622918  0.58983672    -0.28700
C565        C  0.62611768  0.90759621  0.58100015    -0.04800
C566        C  0.62903843  0.90837023  0.56062195     0.07500
C567        C  0.64944781  0.90744767  0.55788734     0.01300
H568        H  0.61196947  0.90720961  0.58879650     0.08900
H569        H  0.65740063  0.90744145  0.54381974     0.08000
N570        N  0.65874884  0.89711968  0.64902251    -0.35800
N571        N  0.67787971  0.89659664  0.65379148    -0.28000
C572        C  0.67963550  0.89395509  0.67358265    -0.03300
C573        C  0.66069934  0.89246874  0.68167040     0.05300
C574        C  0.64776431  0.89447841  0.66566107     0.03400
H575        H  0.69369224  0.89300946  0.68148786     0.08500
H576        H  0.63161797  0.89453850  0.66612948     0.07400
N577        N  0.22266250  0.61596134  0.09680264    -0.27000
N578        N  0.22634589  0.62063753  0.11559764    -0.34900
C579        C  0.24527556  0.62696290  0.11725041     0.01300
C580        C  0.25402830  0.62603798  0.09859051     0.07400
C581        C  0.23933552  0.61885438  0.08598046    -0.05700
H582        H  0.25225241  0.63146475  0.13109586     0.08000
H583        H  0.24056822  0.61623961  0.07008556     0.09200
Cu584      Cu  0.20577539  0.61728732  0.13815628     0.44200
Cu585      Cu  0.19474162  0.60678270  0.08705967     0.42000
Cu586      Cu  0.15782127  0.59560509  0.12534265     0.43900
N587        N  0.18321519  0.61226438  0.15838038    -0.34400
N588        N  0.16578699  0.60415373  0.15403667    -0.28700
C589        C  0.15408650  0.60480948  0.17037368    -0.04800
C590        C  0.16470111  0.61386999  0.18563311     0.07500
C591        C  0.18312211  0.61826692  0.17745701     0.01300
H592        H  0.13859565  0.60027476  0.17066412     0.08900
H593        H  0.19536274  0.62598600  0.18457687     0.08000
N594        N  0.15215527  0.59422482  0.09490193    -0.35800
N595        N  0.16529104  0.59924944  0.08104480    -0.28000
C596        C  0.15611114  0.59967502  0.06318346    -0.03300
C597        C  0.13633988  0.59437992  0.06588452     0.05300
C598        C  0.13438337  0.59095904  0.08615968     0.03400
H599        H  0.16319332  0.60400854  0.04933202     0.08500
H600        H  0.12074749  0.58762203  0.09414160     0.07400
N601        N  0.16591385  0.83671195  0.37755588    -0.27000
N602        N  0.14710786  0.84257368  0.37649392    -0.34900
C603        C  0.13557275  0.82675465  0.37232050     0.01300
C604        C  0.14786159  0.81030247  0.37037652     0.07400
C605        C  0.16696478  0.81712572  0.37385026    -0.05700
H606        H  0.11960822  0.82737507  0.36991361     0.08000
H607        H  0.18069105  0.80862448  0.37327407     0.09200
Cu608      Cu  0.13866072  0.87208285  0.37863779     0.44200
Cu609      Cu  0.18959346  0.85563293  0.38168712     0.42000
Cu610      Cu  0.17957987  0.90812215  0.37971108     0.43900
N611        N  0.13475081  0.90254956  0.38059283    -0.34400
N612        N  0.14945759  0.91564401  0.38147788    -0.28700
C613        C  0.14158320  0.93402482  0.38318119    -0.04800
C614        C  0.12098014  0.93237377  0.38312707     0.07500
C615        C  0.11720408  0.91222856  0.38140268     0.01300
H616        H  0.15022609  0.94758910  0.38394675     0.08900
H617        H  0.10274256  0.90507799  0.38097332     0.08000
N618        N  0.20821972  0.89606924  0.37858492    -0.35800
N619        N  0.21165674  0.87676883  0.38023367    -0.28000
C620        C  0.23135544  0.87333415  0.37903418    -0.03300
C621        C  0.24092256  0.89134246  0.37642882     0.05300
C622        C  0.22578365  0.90546775  0.37604732     0.03400
H623        H  0.23809376  0.85868242  0.37918007     0.08500
H624        H  0.22740323  0.92136169  0.37401713     0.07400
N625        N  0.43651000  0.89652836  0.15290002    -0.27000
N626        N  0.44485067  0.87909457  0.15676584    -0.34900
C627        C  0.44515704  0.87629063  0.17661911     0.01300
C628        C  0.43647256  0.89267763  0.18573629     0.07400
C629        C  0.43124721  0.90522905  0.17018839    -0.05700
H630        H  0.44988896  0.86260937  0.18369855     0.08000
H631        H  0.42342099  0.91929664  0.17125074     0.09200
Cu632      Cu  0.45190920  0.85800785  0.13527385     0.44200
Cu633      Cu  0.43064078  0.90706427  0.12446789     0.42000
Cu634      Cu  0.43790899  0.87100887  0.08534001     0.43900
N635        N  0.45132147  0.83759681  0.11205629    -0.34400
N636        N  0.44572452  0.84245517  0.09379354    -0.28700
C637        C  0.44408524  0.82585260  0.08275800    -0.04800
C638        C  0.44869054  0.80963045  0.09466204     0.07500
C639        C  0.45341440  0.81768674  0.11312282     0.01300
H640        H  0.43898179  0.82562511  0.06744399     0.08900
H641        H  0.45652258  0.80958230  0.12672879     0.08000
N642        N  0.43117285  0.90058763  0.08015311    -0.35800
N643        N  0.42825900  0.91385506  0.09443539    -0.28000
C644        C  0.42533906  0.93182925  0.08608845    -0.03300
C645        C  0.42670628  0.92978104  0.06554977     0.05300
C646        C  0.43028663  0.90972355  0.06236076     0.03400
H647        H  0.42331700  0.94550977  0.09440008     0.08500
H648        H  0.43240431  0.90226670  0.04820069     0.07400
N649        N  0.42737037  0.61996733  0.07597523    -0.27000
N650        N  0.44233068  0.63279046  0.07571085    -0.34900
C651        C  0.45958304  0.62263782  0.07420109     0.01300
C652        C  0.45532108  0.60247720  0.07369037     0.07400
C653        C  0.43472964  0.60132418  0.07492845    -0.05700
H654        H  0.47419291  0.62945032  0.07343550     0.08000
H655        H  0.42570250  0.58799601  0.07436958     0.09200
Cu656      Cu  0.43880324  0.66358797  0.07715595     0.44200
Cu657      Cu  0.39763380  0.62841679  0.07655995     0.42000
Cu658      Cu  0.38758436  0.68109678  0.07875632     0.43900
N659        N  0.43092140  0.69355445  0.07904133    -0.34400
N660        N  0.41215354  0.69969586  0.07911429    -0.28700
C661        C  0.41174514  0.71962006  0.08039909    -0.04800
C662        C  0.43116467  0.72651084  0.08138852     0.07500
C663        C  0.44299046  0.70954128  0.08051399     0.01300
H664        H  0.39821108  0.72841939  0.08112991     0.08900
H665        H  0.45912331  0.70883141  0.08080206     0.08000
N666        N  0.36548190  0.65964829  0.07948375    -0.35800
N667        N  0.36917997  0.64036173  0.07825242    -0.28000
C668        C  0.35188590  0.63034588  0.07954797    -0.03300
C669        C  0.33651775  0.64398395  0.08182179     0.05300
C670        C  0.34573233  0.66243259  0.08179826     0.03400
H671        H  0.35076125  0.61428894  0.07970491     0.08500
H672        H  0.33865934  0.67682771  0.08353375     0.07400
N673        N  0.39498297  0.90080952  0.29639923    -0.27000
N674        N  0.41394764  0.89898777  0.30140392    -0.34900
C675        C  0.42511181  0.89762707  0.28484125     0.01300
C676        C  0.41261100  0.89876147  0.26846345     0.07400
C677        C  0.39353899  0.90076865  0.27636298    -0.05700
H678        H  0.44118240  0.89599081  0.28480178     0.08000
H679        H  0.37959916  0.90152562  0.26826409     0.09200
Cu680      Cu  0.42381445  0.89802126  0.33039768     0.44200
Cu681      Cu  0.37242990  0.90198022  0.31754571     0.42000
Cu682      Cu  0.38740997  0.89281677  0.36963460     0.43900
N683        N  0.43118233  0.89645524  0.36010405    -0.34400
N684        N  0.41807971  0.89374246  0.37460336    -0.28700
C685        C  0.42789913  0.89321526  0.39212162    -0.04800
C686        C  0.44805724  0.89595458  0.38833874     0.07500
C687        C  0.44956021  0.89802769  0.36791112     0.01300
H688        H  0.42082669  0.89167201  0.40655937     0.08900
H689        H  0.46301885  0.90047255  0.35931048     0.08000
N690        N  0.35799895  0.89609735  0.36005583    -0.35800
N691        N  0.35283633  0.90010117  0.34141535    -0.28000
C692        C  0.33288329  0.90181333  0.34034004    -0.03300
C693        C  0.32498907  0.89870640  0.35915658     0.05300
C694        C  0.34134949  0.89498943  0.37127512     0.03400
H695        H  0.32472322  0.90443908  0.32666208     0.08500
H696        H  0.34118693  0.89177788  0.38710287     0.07400
N697        N  0.13100481  0.63856279  0.29591724    -0.27000
N698        N  0.13211357  0.65737293  0.29031453    -0.34900
C699        C  0.13655232  0.65823192  0.27081582     0.01300
C700        C  0.13834585  0.63898890  0.26370543     0.07400
C701        C  0.13456751  0.62686583  0.27999185    -0.05700
H702        H  0.13852717  0.67191843  0.26254649     0.08000
H703        H  0.13520376  0.61077371  0.28043347     0.09200
Cu704      Cu  0.12857547  0.68102201  0.30945244     0.44200
Cu705      Cu  0.12619142  0.63020509  0.32532088     0.42000
Cu706      Cu  0.11425141  0.67021369  0.36021011     0.43900
N707        N  0.12510909  0.70238363  0.33113751    -0.34400
N708        N  0.11930861  0.69863745  0.34960324    -0.28700
C709        C  0.11976060  0.71563192  0.36019162    -0.04800
C710        C  0.12629203  0.73070157  0.34774466     0.07500
C711        C  0.12955862  0.72175897  0.32946070     0.01300
H712        H  0.11681414  0.71664241  0.37603934     0.08900
H713        H  0.13534318  0.72865767  0.31606785     0.08000
N714        N  0.11598873  0.64050241  0.36806875    -0.35800
N715        N  0.12125673  0.62611717  0.35562243    -0.28000
C716        C  0.12262842  0.60893678  0.36581227    -0.03300
C717        C  0.11779765  0.61267320  0.38554330     0.05300
C718        C  0.11356372  0.63280239  0.38642271     0.03400
H719        H  0.12658747  0.59473489  0.35926455     0.08500
H720        H  0.10953666  0.64133543  0.39953974     0.07400
N721        N  0.65141637  0.91406289  0.09268684    -0.27000
N722        N  0.65223593  0.90021620  0.07862443    -0.34900
C723        C  0.64977117  0.90877018  0.06072911     0.01300
C724        C  0.64729619  0.92900474  0.06341087     0.07400
C725        C  0.64847246  0.93188524  0.08390635    -0.05700
H726        H  0.64980846  0.90072023  0.04673003     0.08000
H727        H  0.64683590  0.94577456  0.09192502     0.09200
Cu728      Cu  0.65580653  0.86993781  0.08292256     0.44200
Cu729      Cu  0.65395488  0.90817292  0.12320080     0.42000
Cu730      Cu  0.65901595  0.85533426  0.13286875     0.43900
N731        N  0.65732028  0.84026701  0.09098330    -0.34400
N732        N  0.65805610  0.83497385  0.10991273    -0.28700
C733        C  0.65871189  0.81505477  0.11116790    -0.04800
C734        C  0.65837616  0.80729158  0.09201381     0.07500
C735        C  0.65761127  0.82377775  0.07954089     0.01300
H736        H  0.66000117  0.80693338  0.12503558     0.08900
H737        H  0.65723813  0.82380024  0.06338855     0.08000
N738        N  0.66060046  0.87690113  0.15465644    -0.35800
N739        N  0.65829414  0.89621619  0.15163711    -0.28000
C740        C  0.66002261  0.90569867  0.16931624    -0.03300
C741        C  0.66378551  0.89158168  0.18398890     0.05300
C742        C  0.66408207  0.87356739  0.17406755     0.03400
H743        H  0.65911939  0.92166656  0.17124304     0.08500
H744        H  0.66649362  0.85898584  0.18050125     0.07400
N745        N  0.92493962  0.89830335  0.39320946    -0.27000
N746        N  0.94007145  0.88605692  0.38990588    -0.34900
C747        C  0.95705779  0.89669076  0.38893616     0.01300
C748        C  0.95239399  0.91656104  0.39196317     0.07400
C749        C  0.93191779  0.91700306  0.39471710    -0.05700
H750        H  0.97174447  0.89036283  0.38661172     0.08000
H751        H  0.92271181  0.93000766  0.39732153     0.09200
Cu752      Cu  0.93690940  0.85538066  0.38774900     0.44200
Cu753      Cu  0.89539500  0.88918425  0.39489480     0.42000
Cu754      Cu  0.88662989  0.83650104  0.39679718     0.43900
N755        N  0.92946871  0.82537953  0.38789563    -0.34400
N756        N  0.91135485  0.81861665  0.39182426    -0.28700
C757        C  0.91152607  0.79864820  0.39077075    -0.04800
C758        C  0.93060989  0.79248616  0.38579366     0.07500
C759        C  0.94161268  0.80984307  0.38409194     0.01300
H760        H  0.89852314  0.78933423  0.39285225     0.08900
H761        H  0.95728997  0.81113631  0.38045097     0.08000
N762        N  0.86383355  0.85734294  0.39652777    -0.35800
N763        N  0.86708464  0.87668653  0.39514108    -0.28000
C764        C  0.84954407  0.88606146  0.39244177    -0.03300
C765        C  0.83447739  0.87195889  0.39229270     0.05300
C766        C  0.84411395  0.85389937  0.39497375     0.03400
H767        H  0.84797778  0.90190481  0.38996125     0.08500
H768        H  0.83748823  0.83923824  0.39432015     0.07400
N769        N  0.94055380  0.60579408  0.10354556    -0.27000
N770        N  0.92693580  0.60753085  0.08934563    -0.34900
C771        C  0.93612266  0.60755391  0.07149218     0.01300
C772        C  0.95644873  0.60553766  0.07459521     0.07400
C773        C  0.95871925  0.60431375  0.09507250    -0.05700
H774        H  0.92852048  0.60864424  0.05728928     0.08000
H775        H  0.97258059  0.60286012  0.10324088     0.09200
Cu776      Cu  0.89639538  0.60943892  0.09454409     0.44200
Cu777      Cu  0.93413835  0.60654047  0.13383122     0.42000
Cu778      Cu  0.88173281  0.60922548  0.14627182     0.43900
N779        N  0.86688165  0.61162352  0.10389261    -0.34400
N780        N  0.86160577  0.61172671  0.12289930    -0.28700
C781        C  0.84174429  0.61437344  0.12420530    -0.04800
C782        C  0.83404006  0.61603504  0.10506620     0.07500
C783        C  0.85045755  0.61406071  0.09257156     0.01300
H784        H  0.83360305  0.61504372  0.13813220     0.08900
H785        H  0.85057188  0.61498986  0.07644925     0.08000
N786        N  0.90435723  0.60873309  0.16737084    -0.35800
N787        N  0.92357633  0.60838590  0.16288933    -0.28000
C788        C  0.93426561  0.60956953  0.17986511    -0.03300
C789        C  0.92108948  0.61050319  0.19580343     0.05300
C790        C  0.90228344  0.60986063  0.18729220     0.03400
H791        H  0.95040057  0.60969909  0.18051165     0.08500
H792        H  0.88809863  0.61083918  0.19497488     0.07400
N793        N  0.72082926  0.63167250  0.07319470    -0.27000
N794        N  0.72606710  0.65064403  0.07358455    -0.34900
C795        C  0.74549029  0.65205344  0.07833780     0.01300
C796        C  0.75300838  0.63307891  0.08072199     0.07400
C797        C  0.73702812  0.62044630  0.07733353    -0.05700
H798        H  0.75348704  0.66591373  0.08021165     0.08000
H799        H  0.73699067  0.60438860  0.07860842     0.09200
Cu800      Cu  0.70659632  0.67405286  0.06895466     0.44200
Cu801      Cu  0.69130964  0.62259987  0.06907885     0.42000
Cu802      Cu  0.65405930  0.66262409  0.06734311     0.43900
N803        N  0.68459722  0.69561531  0.06880648    -0.34400
N804        N  0.66529391  0.69156174  0.06947890    -0.28700
C805        C  0.65513674  0.70873231  0.07192861    -0.04800
C806        C  0.66872516  0.72425310  0.07233978     0.07500
C807        C  0.68723704  0.71539180  0.07033329     0.01300
H808        H  0.63909188  0.70982909  0.07352433     0.08900
H809        H  0.70161885  0.72266815  0.07103396     0.08000
N810        N  0.64708669  0.63234667  0.06534662    -0.35800
N811        N  0.66058853  0.61796473  0.06646440    -0.28000
C812        C  0.65121335  0.60026752  0.06606576    -0.03300
C813        C  0.63084732  0.60352356  0.06437882     0.05300
C814        C  0.62879295  0.62408021  0.06387980     0.03400
H815        H  0.65869742  0.58601280  0.06704050     0.08500
H816        H  0.61497984  0.63243504  0.06326384     0.07400
N817        N  0.93711318  0.62208977  0.31271961    -0.27000
N818        N  0.94138810  0.64062070  0.30766851    -0.34900
C819        C  0.94015037  0.64243028  0.28773831     0.01300
C820        C  0.93472604  0.62420991  0.27979380     0.07400
C821        C  0.93286567  0.61164245  0.29608738    -0.05700
H822        H  0.94285519  0.65609106  0.27963307     0.08000
H823        H  0.92921579  0.59596326  0.29586287     0.09200
Cu824      Cu  0.94843163  0.66286509  0.32793130     0.44200
Cu825      Cu  0.93833930  0.61188146  0.34195346     0.42000
Cu826      Cu  0.95251287  0.64872262  0.37943675     0.43900
N827        N  0.95217052  0.68317467  0.35092926    -0.34400
N828        N  0.95316758  0.67799317  0.36992635    -0.28700
C829        C  0.95267189  0.69448865  0.38130374    -0.04800
C830        C  0.95139662  0.71086911  0.36883440     0.07500
C831        C  0.95127742  0.70312768  0.34968334     0.01300
H832        H  0.95239896  0.69446850  0.39745118     0.08900
H833        H  0.94915140  0.71130903  0.33593372     0.08000
N834        N  0.94846070  0.61879396  0.38540350    -0.35800
N835        N  0.94264073  0.60555498  0.37199378    -0.28000
C836        C  0.94072507  0.58774858  0.38093636    -0.03300
C837        C  0.94570510  0.58986879  0.40087549     0.05300
C838        C  0.95061861  0.60972370  0.40315166     0.03400
H839        H  0.93646594  0.57418235  0.37335315     0.08500
H840        H  0.95517258  0.61711881  0.41676661     0.07400
N841        N  0.68938858  0.89780425  0.29902013    -0.27000
N842        N  0.67002014  0.90061337  0.30155702    -0.34900
C843        C  0.66126796  0.90199021  0.28350222     0.01300
C844        C  0.67586333  0.89963840  0.26899441     0.07400
C845        C  0.69349108  0.89711937  0.27942285    -0.05700
H846        H  0.64535438  0.90345785  0.28111575     0.08000
H847        H  0.70819868  0.89447803  0.27327321     0.09200
Cu848      Cu  0.65661337  0.89970667  0.32955555     0.44200
Cu849      Cu  0.70930953  0.89308968  0.32199702     0.42000
Cu850      Cu  0.68950330  0.88163939  0.36994186     0.43900
N851        N  0.64756577  0.89468804  0.35884268    -0.34400
N852        N  0.65928523  0.88745722  0.37300500    -0.28700
C853        C  0.64881655  0.88594470  0.39003176    -0.04800
C854        C  0.62957792  0.89258765  0.38654356     0.07500
C855        C  0.62933926  0.89809607  0.36661875     0.01300
H856        H  0.65506473  0.88112230  0.40411063     0.08900
H857        H  0.61685225  0.90416666  0.35836321     0.08000
N858        N  0.71983032  0.88162040  0.36399087    -0.35800
N859        N  0.72699092  0.88647883  0.34629606    -0.28000
C860        C  0.74700373  0.88643260  0.34702545    -0.03300
C861        C  0.75283414  0.88135449  0.36618050     0.05300
C862        C  0.73517348  0.87823561  0.37652129     0.03400
H863        H  0.75653521  0.88968445  0.33441663     0.08500
H864        H  0.73357306  0.87435095  0.39211755     0.07400
N865        N  0.85073715  0.39600199  0.13335078    -0.27000
N866        N  0.85522028  0.40143885  0.11493114    -0.34900
C867        C  0.83859287  0.40043486  0.10366711     0.01300
C868        C  0.82295248  0.39397557  0.11561457     0.07400
C869        C  0.83129115  0.39125797  0.13429990    -0.05700
H870        H  0.83808312  0.40366571  0.08785846     0.08000
H871        H  0.82375396  0.38634134  0.14770463     0.09200
Cu872      Cu  0.88409855  0.40890002  0.10609925     0.44200
Cu873      Cu  0.87099750  0.39539412  0.15656218     0.42000
Cu874      Cu  0.92242359  0.40546117  0.14464275     0.43900
N875        N  0.91456390  0.41245155  0.10085875    -0.34400
N876        N  0.92847442  0.41043906  0.11473218    -0.28700
C877        C  0.94658970  0.41177826  0.10614741    -0.04800
C878        C  0.94398768  0.41494145  0.08590329     0.07500
C879        C  0.92350242  0.41542478  0.08312177     0.01300
H880        H  0.96059665  0.41043950  0.11407934     0.08900
H881        H  0.91566991  0.41696338  0.06908287     0.08000
N882        N  0.91227773  0.40042400  0.17339623    -0.35800
N883        N  0.89342368  0.39657302  0.17766435    -0.28000
C884        C  0.89169920  0.39323971  0.19734574    -0.03300
C885        C  0.91038958  0.39514264  0.20597053     0.05300
C886        C  0.92308401  0.39971395  0.19029346     0.03400
H887        H  0.87785524  0.38946464  0.20474774     0.08500
H888        H  0.93910626  0.40157338  0.19090287     0.07400
N889        N  0.90949590  0.11723964  0.40244785    -0.27000
N890        N  0.89704348  0.10249199  0.39849346    -0.34900
C891        C  0.90736797  0.08526616  0.39828907     0.01300
C892        C  0.92717089  0.08941210  0.40256067     0.07400
C893        C  0.92793106  0.10980813  0.40509472    -0.05700
H894        H  0.90102830  0.07086923  0.39479935     0.08000
H895        H  0.94112532  0.11875904  0.40752454     0.09200
Cu896      Cu  0.86697067  0.10676427  0.39196398     0.34600
Cu897      Cu  0.90207054  0.14712396  0.40133087     0.42000
Cu898      Cu  0.85359397  0.15869409  0.38271754     0.43900
N899        N  0.83861747  0.11611990  0.38335783    -0.34400
N900        N  0.83404291  0.13490991  0.37956886    -0.28700
C901        C  0.81490691  0.13596007  0.37362420    -0.04800
C902        C  0.80693992  0.11695594  0.37370262     0.07500
C903        C  0.82238927  0.10475759  0.38008261     0.01300
H904        H  0.80728934  0.14966137  0.36985487     0.08900
H905        H  0.82197733  0.08875422  0.38187847     0.08000
N906        N  0.87540769  0.18014692  0.38741590    -0.35800
N907        N  0.89311830  0.17592112  0.39500021    -0.28000
C908        C  0.90404433  0.19268304  0.39600606    -0.03300
C909        C  0.89272765  0.20819437  0.38845959     0.05300
C910        C  0.87464805  0.19970180  0.38315102     0.03400
H911        H  0.91939759  0.19335070  0.40098451     0.08500
H912        H  0.86196076  0.20713410  0.37647372     0.07400
N913        N  0.62441915  0.12544291  0.07996609    -0.27000
N914        N  0.62253976  0.11067190  0.09281056    -0.34900
C915        C  0.62297076  0.09333308  0.08270017     0.01300
C916        C  0.62531308  0.09738993  0.06247408     0.07400
C917        C  0.62616545  0.11798960  0.06140094    -0.05700
H918        H  0.62157990  0.07883345  0.08957915     0.08000
H919        H  0.62723285  0.12702523  0.04809193     0.09200
Cu920      Cu  0.61867865  0.11562373  0.12335634     0.44200
Cu921      Cu  0.62311273  0.15499334  0.08847457     0.42000
Cu922      Cu  0.60896616  0.16719005  0.13952702     0.43900
N923        N  0.61478428  0.12453530  0.15299976    -0.34400
N924        N  0.61063588  0.14291548  0.15886392    -0.28700
C925        C  0.61060622  0.14351619  0.17898627    -0.04800
C926        C  0.61529025  0.12472450  0.18617492     0.07500
C927        C  0.61763822  0.11308936  0.16921783     0.01300
H928        H  0.60877705  0.15696562  0.18770940     0.08900
H929        H  0.62181615  0.09753810  0.16862329     0.08000
N930        N  0.61442239  0.18847352  0.11754411    -0.35800
N931        N  0.62011947  0.18368164  0.09925035    -0.28000
C932        C  0.62465934  0.20030050  0.08917303    -0.03300
C933        C  0.62168365  0.21649592  0.10156678     0.05300
C934        C  0.61509897  0.20845917  0.11948445     0.03400
H935        H  0.63029354  0.20049246  0.07402881     0.08500
H936        H  0.61222381  0.21640600  0.13324834     0.07400
N937        N  0.63829655  0.38938692  0.06590371    -0.27000
N938        N  0.65370070  0.40155059  0.06779072    -0.34900
C939        C  0.64736140  0.42044370  0.06593453     0.01300
C940        C  0.62706206  0.42020784  0.06241150     0.07400
C941        C  0.62176963  0.40029680  0.06240421    -0.05700
H942        H  0.65678255  0.43341809  0.06750415     0.08000
H943        H  0.60685817  0.39426726  0.06105100     0.09200
Cu944      Cu  0.68259369  0.39261540  0.07404449     0.44200
Cu945      Cu  0.64014686  0.35880592  0.07061915     0.42000
Cu946      Cu  0.69084495  0.34107732  0.08144623     0.43900
N947        N  0.71004578  0.38126257  0.08242542    -0.34400
N948        N  0.71309435  0.36208403  0.08545139    -0.28700
C949        C  0.73192268  0.35935313  0.09189108    -0.04800
C950        C  0.74121003  0.37776474  0.09288846     0.07500
C951        C  0.72687855  0.39128862  0.08665112     0.01300
H952        H  0.73835481  0.34500872  0.09544795     0.08900
H953        H  0.72839699  0.40729600  0.08571931     0.08000
N954        N  0.66574566  0.32312133  0.08052912    -0.35800
N955        N  0.64725673  0.32941815  0.07750498    -0.28000
C956        C  0.63466859  0.31393737  0.07975087    -0.03300
C957        C  0.64586850  0.29711941  0.08405648     0.05300
C958        C  0.66545151  0.30353503  0.08441981     0.03400
H959        H  0.61860753  0.31483425  0.07822593     0.08500
H960        H  0.67853977  0.29473824  0.08790377     0.07400
N961        N  0.69313770  0.08918320  0.35634893    -0.27000
N962        N  0.69727514  0.09222294  0.33728639    -0.34900
C963        C  0.71685134  0.09615744  0.33537556     0.01300
C964        C  0.72559789  0.09539716  0.35407590     0.07400
C965        C  0.71010072  0.09086780  0.36703370    -0.05700
H966        H  0.72409036  0.09982781  0.32141309     0.08000
H967        H  0.71085798  0.09002444  0.38314192     0.09200
Cu968      Cu  0.67607035  0.09290393  0.31469850     0.44200
Cu969      Cu  0.66414191  0.08586991  0.36710573     0.42000
Cu970      Cu  0.62479076  0.09347958  0.32991841     0.43900
N971        N  0.65258131  0.09676733  0.29485384    -0.34400
N972        N  0.63367344  0.09747744  0.30045776    -0.28700
C973        C  0.62226540  0.10185075  0.28448016    -0.04800
C974        C  0.63461707  0.10391153  0.26798438     0.07500
C975        C  0.65371484  0.10044598  0.27515738     0.01300
H976        H  0.60619845  0.10345216  0.28488896     0.08900
H977        H  0.66752396  0.10124643  0.26680204     0.08000
N978        N  0.61973470  0.09094442  0.36043302    -0.35800
N979        N  0.63382265  0.08766958  0.37388826    -0.28000
C980        C  0.62537462  0.08714147  0.39213804    -0.03300
C981        C  0.60503768  0.09039861  0.39006980     0.05300
C982        C  0.60205043  0.09280900  0.36977774     0.03400
H983        H  0.63354168  0.08517252  0.40592486     0.08500
H984        H  0.58801791  0.09568620  0.36231414     0.07400
N985        N  0.93325054  0.38115689  0.39237429    -0.27000
N986        N  0.93875784  0.39410262  0.37853626    -0.34900
C987        C  0.94188986  0.41190106  0.38716399     0.01300
C988        C  0.93801499  0.41021246  0.40736520     0.07400
C989        C  0.93251692  0.39053586  0.41013615    -0.05700
H990        H  0.94652145  0.42515430  0.37925498     0.08000
H991        H  0.92883195  0.38338748  0.42412416     0.09200
Cu992      Cu  0.94135435  0.38776647  0.34835629     0.44200
Cu993      Cu  0.92804656  0.35095568  0.38707845     0.42000
Cu994      Cu  0.93296583  0.33655233  0.33592439     0.43900
N995        N  0.93880229  0.37767284  0.31925413    -0.34400
N996        N  0.93535389  0.35880084  0.31492354    -0.28700
C997        C  0.93140225  0.35711640  0.29537446    -0.04800
C998        C  0.93239870  0.37584035  0.28692333     0.07500
C999        C  0.93734643  0.38853295  0.30243561     0.01300
H1000       H  0.92719947  0.34337764  0.28807088     0.08900
H1001       H  0.93828625  0.40460288  0.30183451     0.08000
N1002       N  0.92697673  0.31655950  0.35843679    -0.35800
N1003       N  0.92494035  0.32156013  0.37740314    -0.28000
C1004       C  0.91992274  0.30517600  0.38789272    -0.03300
C1005       C  0.91860352  0.28919142  0.37476285     0.05300
C1006       C  0.92321830  0.29707295  0.35625976     0.03400
H1007       H  0.91663706  0.30511666  0.40370679     0.08500
H1008       H  0.92343445  0.28931745  0.34209931     0.07400
N1009       N  0.21609212  0.42059033  0.12295137    -0.27000
N1010       N  0.21252890  0.42334445  0.10375227    -0.34900
C1011       C  0.23001076  0.42290262  0.09375216     0.01300
C1012       C  0.24532317  0.41966491  0.10736529     0.07400
C1013       C  0.23581074  0.41832384  0.12570096    -0.05700
H1014       H  0.23132180  0.42410442  0.07770759     0.08000
H1015       H  0.24265073  0.41564935  0.14007221     0.09200
Cu1016     Cu  0.18378208  0.42693710  0.09250425     0.44200
Cu1017     Cu  0.19422033  0.41924532  0.14483357     0.42000
Cu1018     Cu  0.14534466  0.43499217  0.13095818     0.43900
N1019       N  0.15362726  0.43169431  0.08659962    -0.34400
N1020       N  0.14015955  0.43594436  0.10044885    -0.28700
C1021       C  0.12217756  0.43786022  0.09176102    -0.04800
C1022       C  0.12431235  0.43437112  0.07155232     0.07500
C1023       C  0.14441215  0.43039198  0.06878632     0.01300
H1024       H  0.10833656  0.44019600  0.09977813     0.08900
H1025       H  0.15170986  0.42634963  0.05494186     0.08000
N1026       N  0.15245588  0.42609263  0.15974315    -0.35800
N1027       N  0.17038014  0.41945799  0.16460027    -0.28000
C1028       C  0.17011190  0.41324030  0.18367761    -0.03300
C1029       C  0.15107281  0.41616346  0.19127745     0.05300
C1030       C  0.14030525  0.42445389  0.17567516     0.03400
H1031       H  0.18292314  0.40725816  0.19146825     0.08500
H1032       H  0.12464999  0.42847104  0.17571943     0.07400
N1033       N  0.43221727  0.13648942  0.08807900    -0.27000
N1034       N  0.42797723  0.12267701  0.10155479    -0.34900
C1035       C  0.42635230  0.10495392  0.09229512     0.01300
C1036       C  0.42999069  0.10766916  0.07215844     0.07400
C1037       C  0.43376450  0.12777974  0.07003180    -0.05700
H1038       H  0.42289209  0.09107999  0.09971118     0.08000
H1039       H  0.43684741  0.13561708  0.05626667     0.09200
Cu1040     Cu  0.42457047  0.12772116  0.13214169     0.44200
Cu1041     Cu  0.43460154  0.16692827  0.09385306     0.42000
Cu1042     Cu  0.43254703  0.17806639  0.14592272     0.43900
N1043       N  0.42145849  0.13773357  0.16148912    -0.34400
N1044       N  0.42424566  0.15661723  0.16620070    -0.28700
C1045       C  0.41994333  0.15940647  0.18557157    -0.04800
C1046       C  0.41430225  0.14136097  0.19366686     0.07500
C1047       C  0.41559166  0.12784685  0.17800302     0.01300
H1048       H  0.42086421  0.17358852  0.19318398     0.08900
H1049       H  0.41195165  0.11216476  0.17845107     0.08000
N1050       N  0.43509840  0.19958876  0.12425575    -0.35800
N1051       N  0.43537575  0.19596450  0.10487802    -0.28000
C1052       C  0.43440240  0.21347687  0.09504738    -0.03300
C1053       C  0.43332647  0.22872202  0.10906164     0.05300
C1054       C  0.43389661  0.21926091  0.12734958     0.03400
H1055       H  0.43324113  0.21491141  0.07900023     0.08500
H1056       H  0.43250904  0.22608839  0.14191664     0.07400
N1057       N  0.12086414  0.14348531  0.39445842    -0.27000
N1058       N  0.13505905  0.13130429  0.40074427    -0.34900
C1059       C  0.12745505  0.11285745  0.40237213     0.01300
C1060       C  0.10760500  0.11341764  0.39655988     0.07400
C1061       C  0.10395183  0.13310510  0.39169705    -0.05700
H1062       H  0.13592711  0.09988114  0.40686221     0.08000
H1063       H  0.08996595  0.13953493  0.38680636     0.09200
Cu1064     Cu  0.16463103  0.13982249  0.40454515     0.44200
Cu1065     Cu  0.12473240  0.17376323  0.39052675     0.42000
Cu1066     Cu  0.17469899  0.19205725  0.39872632     0.43900
N1067       N  0.19313071  0.15117559  0.40010735    -0.34400
N1068       N  0.19672034  0.17032518  0.39749123    -0.28700
C1069       C  0.21597169  0.17269020  0.39228747    -0.04800
C1070       C  0.22507497  0.15412301  0.39166565     0.07500
C1071       C  0.21005473  0.14084744  0.39676591     0.01300
H1072       H  0.22268895  0.18688149  0.38873931     0.08900
H1073       H  0.21096174  0.12477504  0.39687503     0.08000
N1074       N  0.14998106  0.21039547  0.39543645    -0.35800
N1075       N  0.13189685  0.20367712  0.39137773    -0.28000
C1076       C  0.11973200  0.21919129  0.38774214    -0.03300
C1077       C  0.13063396  0.23654498  0.38982318     0.05300
C1078       C  0.14974862  0.23039533  0.39474924     0.03400
H1079       H  0.10421500  0.21789344  0.38343739     0.08500
H1080       H  0.16282255  0.23967650  0.39641739     0.07400
N1081       N  0.33845769  0.12721511  0.36883483    -0.27000
N1082       N  0.33528479  0.13533557  0.35112948    -0.34900
C1083       C  0.31631806  0.14191461  0.35025241     0.01300
C1084       C  0.30697809  0.13769500  0.36822080     0.07400
C1085       C  0.32150156  0.12830332  0.37960849    -0.05700
H1086       H  0.30967498  0.14867801  0.33719468     0.08000
H1087       H  0.31989425  0.12272390  0.39467247     0.09200
Cu1088     Cu  0.35613205  0.13581298  0.32808281     0.44200
Cu1089     Cu  0.36570744  0.11490676  0.37744027     0.42000
Cu1090     Cu  0.40237739  0.11136416  0.33690335     0.43900
N1091       N  0.37729858  0.13125388  0.30578292    -0.34400
N1092       N  0.39423835  0.12167257  0.30891318    -0.28700
C1093       C  0.40434680  0.12026105  0.29158068    -0.04800
C1094       C  0.39320414  0.12943366  0.27672373     0.07500
C1095       C  0.37618448  0.13630107  0.28638536     0.01300
H1096       H  0.41887645  0.11337470  0.29006287     0.08900
H1097       H  0.36369909  0.14409221  0.27974155     0.08000
N1098       N  0.40807429  0.10401699  0.36639539    -0.35800
N1099       N  0.39501407  0.10514094  0.38118508    -0.28000
C1100       C  0.40445642  0.10101905  0.39846848    -0.03300
C1101       C  0.42442087  0.09740187  0.39432093     0.05300
C1102       C  0.42606390  0.09928577  0.37383596     0.03400
H1103       H  0.39761932  0.10197868  0.41308010     0.08500
H1104       H  0.43953737  0.09817552  0.36499279     0.07400
N1105       N  0.10505707  0.40892700  0.37663100    -0.27000
N1106       N  0.10950016  0.42205171  0.36261271    -0.34900
C1107       C  0.11101509  0.44017324  0.37107002     0.01300
C1108       C  0.10704421  0.43835729  0.39128081     0.07400
C1109       C  0.10323581  0.41836979  0.39425858    -0.05700
H1110       H  0.11471064  0.45367333  0.36309937     0.08000
H1111       H  0.10013075  0.41109667  0.40832870     0.09200
Cu1112     Cu  0.11339163  0.41465328  0.33262774     0.44200
Cu1113     Cu  0.10384120  0.37854951  0.37173259     0.42000
Cu1114     Cu  0.11292334  0.36179669  0.32133502     0.43900
N1115       N  0.11734661  0.40307607  0.30401268    -0.34400
N1116       N  0.11763401  0.38377887  0.30007712    -0.28700
C1117       C  0.12201172  0.38108108  0.28066238    -0.04800
C1118       C  0.12436306  0.39955176  0.27181338     0.07500
C1119       C  0.12124647  0.41316393  0.28708437     0.01300
H1120       H  0.12359788  0.36668877  0.27356309     0.08900
H1121       H  0.12259494  0.42918416  0.28618072     0.08000
N1122       N  0.10971638  0.34268444  0.34545959    -0.35800
N1123       N  0.10689551  0.34889780  0.36397995    -0.28000
C1124       C  0.10761019  0.33319071  0.37638734    -0.03300
C1125       C  0.11072225  0.31622480  0.36510172     0.05300
C1126       C  0.11196344  0.32278510  0.34555289     0.03400
H1127       H  0.10642247  0.33412633  0.39247509     0.08500
H1128       H  0.11536127  0.31390543  0.33249923     0.07400
N1129       N  0.43335749  0.40141582  0.07269805    -0.27000
N1130       N  0.41998676  0.41572352  0.07005910    -0.34900
C1131       C  0.42968364  0.43289936  0.06630013     0.01300
C1132       C  0.45003479  0.42918464  0.06695286     0.07400
C1133       C  0.45176287  0.40912029  0.07103422    -0.05700
H1134       H  0.42249979  0.44720909  0.06435413     0.08000
H1135       H  0.46543778  0.40077040  0.07310963     0.09200
Cu1136     Cu  0.38935550  0.41177335  0.07440603     0.44200
Cu1137     Cu  0.42704465  0.37209855  0.07982977     0.42000
Cu1138     Cu  0.37793535  0.36291513  0.09566817     0.43900
N1139       N  0.36089381  0.40311465  0.08370195    -0.34400
N1140       N  0.35726296  0.38552000  0.09177304    -0.28700
C1141       C  0.33799580  0.38457344  0.09710731    -0.04800
C1142       C  0.32886084  0.40242930  0.09235683     0.07500
C1143       C  0.34380683  0.41381671  0.08367415     0.01300
H1144       H  0.33116113  0.37166405  0.10388610     0.08900
H1145       H  0.34250522  0.42895258  0.07829594     0.08000
N1146       N  0.39970761  0.34102735  0.09594315    -0.35800
N1147       N  0.41796706  0.34422230  0.08929349    -0.28000
C1148       C  0.42838164  0.32707886  0.09002523    -0.03300
C1149       C  0.41607826  0.31240250  0.09773804     0.05300
C1150       C  0.39799247  0.32183341  0.10130995     0.03400
H1151       H  0.44377215  0.32545082  0.08536970     0.08500
H1152       H  0.38436595  0.31512811  0.10675563     0.07400
O1153       O  0.56350614  0.49260284  0.04528407    -0.72700
O1154       O  0.52137904  0.53543420  0.04837201    -0.73600
O1155       O  0.56366580  0.53543472  0.04700292    -0.62300
O1156       O  0.52077326  0.49325812  0.04667096    -0.70700
O1157       O  0.52275930  0.49127401  0.07965426    -0.70200
O1158       O  0.56454389  0.53413968  0.08009588    -0.61500
O1159       O  0.52184199  0.53322710  0.08144598    -0.74000
O1160       O  0.56513843  0.49199721  0.07833942    -0.72800
Cu1161     Cu  0.54235830  0.51419209  0.04564969     1.04600
Cu1162     Cu  0.54364296  0.51261764  0.08100432     1.04300
C1163       C  0.57099328  0.48554233  0.06136962     0.93500
C1164       C  0.51478262  0.54081799  0.06544833     0.92700
C1165       C  0.57066009  0.54161719  0.06365450     0.84800
C1166       C  0.51481535  0.48581309  0.06319590     0.91100
O1167       O  0.09776400  0.55222724  0.49905769    -0.72700
O1168       O  0.09373604  0.50797178  0.45847307    -0.73600
O1169       O  0.09433838  0.51030145  0.50105251    -0.62300
O1170       O  0.09701398  0.55033246  0.45675062    -0.70700
O1171       O  0.13005439  0.54797303  0.45663456    -0.70200
O1172       O  0.12726188  0.50677026  0.49996440    -0.61500
O1173       O  0.12677897  0.50605161  0.45748636    -0.74000
O1174       O  0.13069877  0.54878094  0.49926186    -0.72800
Cu1175     Cu  0.09455449  0.53028521  0.47881539     1.04600
Cu1176     Cu  0.12983585  0.52730660  0.47831117     1.04300
C1177       C  0.11488462  0.55722450  0.50583939     0.93500
C1178       C  0.10969936  0.50016178  0.45141503     0.92700
C1179       C  0.11036355  0.50231084  0.50761929     0.84800
C1180       C  0.11395728  0.55559436  0.44977224     0.91100
O1181       O  0.49519895  0.11132020  0.45725581    -0.72700
O1182       O  0.53829786  0.11395498  0.49865627    -0.73600
O1183       O  0.53726773  0.11117561  0.45647785    -0.62300
O1184       O  0.49567334  0.11434046  0.49935439    -0.70700
O1185       O  0.49591596  0.08141406  0.50233371    -0.70200
O1186       O  0.53732647  0.07821942  0.45889537    -0.61500
O1187       O  0.53804455  0.08101288  0.50118484    -0.74000
O1188       O  0.49440215  0.07838487  0.46010960    -0.72800
Cu1189     Cu  0.51660455  0.11383522  0.47789099     1.04600
Cu1190     Cu  0.51641341  0.07858439  0.48067250     1.04300
C1191       C  0.48792458  0.09448300  0.45225572     0.93500
C1192       C  0.54509333  0.09789966  0.50635470     0.92700
C1193       C  0.54391789  0.09422771  0.45093395     0.84800
C1194       C  0.48921819  0.09845200  0.50758225     0.91100
O1195       O  0.93210819  0.52655583  0.51090795    -0.72700
O1196       O  0.92941384  0.48083310  0.47264721    -0.73600
O1197       O  0.93051507  0.48504710  0.51471683    -0.62300
O1198       O  0.93102463  0.52292084  0.46870118    -0.70700
O1199       O  0.96416540  0.52251339  0.46850037    -0.70200
O1200       O  0.96355755  0.48277747  0.51344164    -0.61500
O1201       O  0.96248806  0.48014217  0.47083861    -0.74000
O1202       O  0.96524270  0.52510562  0.51052466    -0.72800
Cu1203     Cu  0.92964414  0.50386481  0.49170633     1.04600
Cu1204     Cu  0.96505519  0.50253046  0.49076658     1.04300
C1205       C  0.94903084  0.53286097  0.51696745     0.93500
C1206       C  0.94546698  0.47332651  0.46556677     0.92700
C1207       C  0.94690101  0.47808447  0.52150986     0.84800
C1208       C  0.94762186  0.52912932  0.46167603     0.91100
O1209       O  0.56122425  0.88956810  0.49522668    -0.72700
O1210       O  0.51772614  0.88631386  0.45471428    -0.73600
O1211       O  0.56006841  0.88561311  0.45358478    -0.62300
O1212       O  0.51910156  0.89030317  0.49681773    -0.70700
O1213       O  0.51813148  0.92308503  0.49276585    -0.70200
O1214       O  0.56101470  0.91851336  0.45072350    -0.61500
O1215       O  0.51876605  0.91906536  0.45046521    -0.74000
O1216       O  0.56071948  0.92256105  0.49314980    -0.72800
Cu1217     Cu  0.53948244  0.88684000  0.47517438     1.04600
Cu1218     Cu  0.53967353  0.92200453  0.47167494     1.04300
C1219       C  0.56782072  0.90653571  0.50063099     0.93500
C1220       C  0.51151031  0.90206040  0.44600827     0.92700
C1221       C  0.56721534  0.90126049  0.44548956     0.84800
C1222       C  0.51207355  0.90734187  0.50160601     0.91100
O1223       O  0.50198813  0.49460196  0.90146436    -0.72700
O1224       O  0.54780034  0.53364288  0.90325249    -0.73600
O1225       O  0.50515201  0.53677380  0.90089157    -0.62300
O1226       O  0.54473853  0.49166379  0.90377289    -0.70700
O1227       O  0.54632007  0.49125068  0.87068200    -0.70200
O1228       O  0.50702885  0.53618755  0.86781553    -0.61500
O1229       O  0.54911117  0.53337877  0.87015279    -0.74000
O1230       O  0.50422947  0.49372750  0.86840202    -0.72800
Cu1231     Cu  0.52482816  0.51419541  0.90352785     1.04600
Cu1232     Cu  0.52670280  0.51361912  0.86814372     1.04300
C1233       C  0.49601555  0.48793549  0.88460437     0.93500
C1234       C  0.55574141  0.53955437  0.88693750     0.92700
C1235       C  0.49990269  0.54362329  0.88387382     0.84800
C1236       C  0.55186811  0.48444650  0.88759270     0.91100
O1237       O  0.00999105  0.99266954  0.37679249    -0.72700
O1238       O  0.04511152  0.04134540  0.37783073    -0.73600
O1239       O  0.05132972  0.99944118  0.37425001    -0.62300
O1240       O  0.00309731  0.03413443  0.37998141    -0.70700
O1241       O  0.00589945  0.03307146  0.41297749    -0.70200
O1242       O  0.05350868  0.99681648  0.40723333    -0.61500
O1243       O  0.04799747  0.03839966  0.41067870    -0.74000
O1244       O  0.01139897  0.99134058  0.40988248    -0.72800
Cu1245     Cu  0.02733315  0.01706469  0.37606618     1.04600
Cu1246     Cu  0.02979165  0.01487050  0.41134829     1.04300
C1247       C  0.00504599  0.98446632  0.39327455     0.93500
C1248       C  0.05246663  0.04726695  0.39443968     0.92700
C1249       C  0.05968682  0.99221773  0.38976098     0.84800
C1250       C  0.99670895  0.03890716  0.39730278     0.91100
O1251       O  0.00830451  0.99870964  0.55596778    -0.72700
O1252       O  0.04495089  0.04561914  0.55214018    -0.73600
O1253       O  0.05044519  0.00366652  0.55293866    -0.62300
O1254       O  0.00309211  0.04063547  0.55520838    -0.70700
O1255       O  0.00597162  0.04217383  0.58813967    -0.70200
O1256       O  0.05162150  0.00341728  0.58607007    -0.61500
O1257       O  0.04814602  0.04536692  0.58513961    -0.74000
O1258       O  0.00994548  0.99981172  0.58904798    -0.72800
Cu1259     Cu  0.02659507  0.02211735  0.55289985     1.04600
Cu1260     Cu  0.02896073  0.02276523  0.58824769     1.04300
C1261       C  0.00342350  0.99178448  0.57304819     0.93500
C1262       C  0.05256105  0.05268644  0.56810879     0.92700
C1263       C  0.05826571  0.99748301  0.56921022     0.84800
C1264       C  0.99729911  0.04758171  0.57202234     0.91100
O1265       O  0.41034241  0.04343199  0.95980833    -0.72700
O1266       O  0.40893451  0.00090394  0.00174931    -0.73600
O1267       O  0.41071204  0.04298365  0.00251349    -0.62300
O1268       O  0.40852426  0.00166902  0.95915623    -0.70700
O1269       O  0.44164995  0.00022932  0.95877464    -0.70200
O1270       O  0.44380112  0.04165747  0.00200540    -0.61500
O1271       O  0.44205701  0.99929262  0.00082032    -0.74000
O1272       O  0.44348133  0.04241328  0.95957998    -0.72800
Cu1273     Cu  0.40846968  0.02233909  0.98085673     1.04600
Cu1274     Cu  0.44390111  0.02088941  0.98032878     1.04300
C1275       C  0.42705631  0.04930022  0.95276237     0.93500
C1276       C  0.42535249  0.99322605  0.00768823     0.92700
C1277       C  0.42760732  0.04883022  0.00915754     0.84800
C1278       C  0.42474305  0.99447004  0.95211367     0.91100
O1279       O  0.00439009  0.43175133  0.97126487    -0.72700
O1280       O  0.04845607  0.43910397  0.01114483    -0.73600
O1281       O  0.04630051  0.43609835  0.96898483    -0.62300
O1282       O  0.00620642  0.43473243  0.01359030    -0.70700
O1283       O  0.01127494  0.40228890  0.01723580    -0.70200
O1284       O  0.04793763  0.40308572  0.96983923    -0.61500
O1285       O  0.05319368  0.40642900  0.01177466    -0.74000
O1286       O  0.00636879  0.39899785  0.97524012    -0.72800
Cu1287     Cu  0.02619890  0.43658027  0.99122936     1.04600
Cu1288     Cu  0.02982989  0.40155520  0.99364683     1.04300
C1289       C  0.99838452  0.41420779  0.96702265     0.93500
C1290       C  0.05819714  0.42393141  0.01732237     0.92700
C1291       C  0.05297544  0.41967394  0.96201960     0.84800
C1292       C  0.00252646  0.41836103  0.02257721     0.91100
O1293       O  0.64853060  0.99115764  0.94964671    -0.72700
O1294       O  0.64501587  0.03556792  0.99009838    -0.73600
O1295       O  0.65050507  0.99383342  0.99216766    -0.62300
O1296       O  0.64334016  0.03288834  0.94784819    -0.70700
O1297       O  0.61042019  0.03017281  0.95072470    -0.70200
O1298       O  0.61781338  0.98821691  0.99270928    -0.61500
O1299       O  0.61250339  0.02997180  0.99320689    -0.74000
O1300       O  0.61559467  0.98784313  0.95060901    -0.72800
Cu1301     Cu  0.64799549  0.01348626  0.96984512     1.04600
Cu1302     Cu  0.61291454  0.00893422  0.97180454     1.04300
C1303       C  0.63258790  0.98251487  0.94371774     0.93500
C1304       C  0.62823744  0.03937162  0.99840902     0.92700
C1305       C  0.63535285  0.98484863  0.99937076     0.84800
C1306       C  0.62577249  0.03799144  0.94254823     0.91100
O1307       O  0.01970546  0.61166017  0.96182231    -0.72700
O1308       O  0.06511412  0.61288975  0.00148780    -0.73600
O1309       O  0.06176373  0.61013276  0.95923135    -0.62300
O1310       O  0.02252806  0.61489368  0.00405371    -0.70700
O1311       O  0.02159369  0.58199124  0.00695999    -0.70200
O1312       O  0.06084860  0.57719729  0.96158543    -0.61500
O1313       O  0.06357968  0.58000073  0.00378427    -0.74000
O1314       O  0.01825532  0.57880578  0.96462601    -0.72800
Cu1315     Cu  0.04231676  0.61354488  0.98160388     1.04600
Cu1316     Cu  0.04102081  0.57835958  0.98431226     1.04300
C1317       C  0.01186701  0.59500423  0.95690289     0.93500
C1318       C  0.07154173  0.59650318  0.00885449     0.92700
C1319       C  0.06746420  0.59298993  0.95324092     0.84800
C1320       C  0.01589799  0.59927124  0.01263000     0.91100
C1321       C  0.49716446  0.45746145  0.07943893    -0.21000
C1322       C  0.49844057  0.47101429  0.06353368    -0.09100
C1323       C  0.48350108  0.47076982  0.04871210     0.29800
C1324       C  0.46752817  0.45737404  0.05005996    -0.21000
C1325       C  0.46650754  0.44370436  0.06584284    -0.09100
C1326       C  0.48150854  0.44379500  0.08049810     0.29800
F1327       F  0.48070301  0.43105703  0.09619991    -0.19600
H1328       H  0.50837973  0.45739217  0.09108680     0.18200
H1329       H  0.45608732  0.45747537  0.03863246     0.18200
F1330       F  0.48400050  0.48380632  0.03325092    -0.19600
C1331       C  0.09192363  0.45618796  0.42033110    -0.21000
C1332       C  0.10763758  0.45415986  0.40659796    -0.09100
C1333       C  0.12393696  0.46721722  0.40771459     0.29800
C1334       C  0.12451108  0.48199581  0.42241984    -0.21000
C1335       C  0.10864730  0.48434575  0.43599166    -0.09100
C1336       C  0.09221544  0.47134890  0.43472037     0.29800
F1337       F  0.07665865  0.47298893  0.44761527    -0.19600
H1338       H  0.07926107  0.44619803  0.41969466     0.18200
H1339       H  0.13733884  0.49177112  0.42306765     0.18200
F1340       F  0.13959079  0.46529894  0.39496777    -0.19600
C1341       C  0.43867843  0.08447492  0.42638317    -0.21000
C1342       C  0.44100417  0.09560409  0.40877761    -0.09100
C1343       C  0.45911253  0.10566652  0.40540805     0.29800
C1344       C  0.47433476  0.10496843  0.41958396    -0.21000
C1345       C  0.47204352  0.09388234  0.43711964    -0.09100
C1346       C  0.45421421  0.08336249  0.44037142     0.29800
F1347       F  0.45151110  0.07279239  0.45742193    -0.19600
H1348       H  0.42484174  0.07667094  0.42928177     0.18200
H1349       H  0.48796296  0.11322010  0.41691430     0.18200
F1350       F  0.46181240  0.11700624  0.38887548    -0.19600
C1351       C  0.09463766  0.08143988  0.41016112    -0.21000
C1352       C  0.09341767  0.09658541  0.39581142    -0.09100
C1353       C  0.07866753  0.09538944  0.38088939     0.29800
C1354       C  0.06545898  0.07926355  0.38040932    -0.21000
C1355       C  0.06648447  0.06426903  0.39497010    -0.09100
C1356       C  0.08122125  0.06553871  0.40991560     0.29800
F1357       F  0.08301224  0.05117035  0.42404540    -0.19600
H1358       H  0.10585814  0.08204113  0.42178454     0.18200
H1359       H  0.05430683  0.07858058  0.36872495     0.18200
F1360       F  0.07737511  0.10944970  0.36640848    -0.19600
C1361       C  0.25604779  0.16249957  0.37243893    -0.21000
C1362       C  0.24590071  0.14953151  0.38540255    -0.09100
C1363       C  0.25595494  0.13245294  0.39235987     0.29800
C1364       C  0.27578047  0.12877078  0.38676421    -0.21000
C1365       C  0.28590771  0.14177274  0.37385353    -0.09100
C1366       C  0.27575327  0.15864396  0.36659626     0.29800
F1367       F  0.28501996  0.17181745  0.35437369    -0.19600
H1368       H  0.24869912  0.17565829  0.36667425     0.18200
H1369       H  0.28318737  0.11560531  0.39245539     0.18200
F1370       F  0.24691771  0.11956699  0.40504212    -0.19600
C1371       C  0.12645859  0.29277867  0.38930611    -0.21000
C1372       C  0.11442158  0.29585042  0.37242442    -0.09100
C1373       C  0.10668436  0.27932610  0.36218945     0.29800
C1374       C  0.11139518  0.26004629  0.36844139    -0.21000
C1375       C  0.12420737  0.25694814  0.38473498    -0.09100
C1376       C  0.13150835  0.27348140  0.39532675     0.29800
F1377       F  0.14345651  0.27099572  0.41150295    -0.19600
H1378       H  0.13250280  0.30533557  0.39743592     0.18200
H1379       H  0.10557295  0.24753380  0.36008889     0.18200
F1380       F  0.09449991  0.28181869  0.34619717    -0.19600
C1381       C  0.41241475  0.06563978  0.03884522    -0.21000
C1382       C  0.42836971  0.06389875  0.02529921    -0.09100
C1383       C  0.44490356  0.07665813  0.02739396     0.29800
C1384       C  0.44522388  0.09102205  0.04254414    -0.21000
C1385       C  0.42941205  0.09250912  0.05620509    -0.09100
C1386       C  0.41302111  0.07962802  0.05433064     0.29800
F1387       F  0.39733729  0.08097756  0.06710942    -0.19600
H1388       H  0.39953742  0.05598509  0.03758731     0.18200
H1389       H  0.45797195  0.10084924  0.04378821     0.18200
F1390       F  0.46056109  0.07556451  0.01456068    -0.19600
C1391       C  0.41668499  0.26029426  0.11927527    -0.21000
C1392       C  0.42918056  0.25013404  0.10581999    -0.09100
C1393       C  0.43766012  0.26068680  0.08981803     0.29800
C1394       C  0.43366764  0.28105305  0.08746362    -0.21000
C1395       C  0.42086202  0.29108485  0.10076166    -0.09100
C1396       C  0.41246120  0.28048673  0.11677107     0.29800
F1397       F  0.40055598  0.28970718  0.13034523    -0.19600
H1398       H  0.40992325  0.25252767  0.13171426     0.18200
H1399       H  0.44032863  0.28891500  0.07502990     0.18200
F1400       F  0.45015508  0.25147826  0.07678118    -0.19600
C1401       C  0.41497305  0.12080673  0.22478937    -0.21000
C1402       C  0.40813665  0.13771963  0.21457175    -0.09100
C1403       C  0.39603587  0.15154280  0.22474743     0.29800
C1404       C  0.39107242  0.14854160  0.24479539    -0.21000
C1405       C  0.39834908  0.13193158  0.25527411    -0.09100
C1406       C  0.41037322  0.11801103  0.24501956     0.29800
F1407       F  0.41746272  0.10154387  0.25436407    -0.19600
H1408       H  0.42433059  0.11000128  0.21722848     0.18200
H1409       H  0.38181644  0.15950346  0.25223625     0.18200
F1410       F  0.38872862  0.16784467  0.21524607    -0.19600
C1411       C  0.10703297  0.41533042  0.04476356    -0.21000
C1412       C  0.10801253  0.43229662  0.05692926    -0.09100
C1413       C  0.09275929  0.44662738  0.05580312     0.29800
C1414       C  0.07674529  0.44394988  0.04269241    -0.21000
C1415       C  0.07541915  0.42670445  0.03086794    -0.09100
C1416       C  0.09076927  0.41237263  0.03202183     0.29800
F1417       F  0.09019946  0.39559407  0.02072656    -0.19600
H1418       H  0.11860580  0.40406596  0.04556023     0.18200
H1419       H  0.06518094  0.45523010  0.04205012     0.18200
F1420       F  0.09348578  0.46332617  0.06720681    -0.19600
C1421       C  0.14439754  0.39093137  0.24155237    -0.21000
C1422       C  0.13066730  0.40365920  0.25100865    -0.09100
C1423       C  0.12328811  0.42022222  0.24047620     0.29800
C1424       C  0.12967209  0.42395911  0.22091495    -0.21000
C1425       C  0.14383951  0.41153790  0.21167322    -0.09100
C1426       C  0.15108445  0.39488314  0.22216931     0.29800
F1427       F  0.16430530  0.38214242  0.21359049    -0.19600
H1428       H  0.15027586  0.37806898  0.24932899     0.18200
H1429       H  0.12382350  0.43682585  0.21312405     0.18200
F1430       F  0.10961435  0.43257827  0.24890605    -0.19600
C1431       C  0.27793191  0.40446247  0.11680593    -0.21000
C1432       C  0.26691160  0.41624130  0.10344138    -0.09100
C1433       C  0.27675081  0.42432567  0.08669418     0.29800
C1434       C  0.29706739  0.42025900  0.08334813    -0.21000
C1435       C  0.30780456  0.40793336  0.09648102    -0.09100
C1436       C  0.29805812  0.40035634  0.11344283     0.29800
F1437       F  0.30802801  0.38921443  0.12709178    -0.19600
H1438       H  0.27091541  0.39802196  0.12983361     0.18200
H1439       H  0.30429059  0.42639323  0.07026599     0.18200
F1440       F  0.26691774  0.43635938  0.07373030    -0.19600
C1441       C  0.95603411  0.43950535  0.42143143    -0.21000
C1442       C  0.94014358  0.42594601  0.42266381    -0.09100
C1443       C  0.92633428  0.42777961  0.43837343     0.29800
C1444       C  0.92822760  0.44318976  0.45230595    -0.21000
C1445       C  0.94415115  0.45673229  0.45111265    -0.09100
C1446       C  0.95822332  0.45460537  0.43565914     0.29800
F1447       F  0.97369726  0.46750469  0.43388532    -0.19600
H1448       H  0.96688501  0.43830686  0.40949110     0.18200
H1449       H  0.91722177  0.44453053  0.46409170     0.18200
F1450       F  0.91059267  0.41517074  0.43984361    -0.19600
C1451       C  0.57409871  0.10547345  0.40445227    -0.21000
C1452       C  0.58970860  0.09155458  0.40596384    -0.09100
C1453       C  0.59019122  0.07859452  0.42244337     0.29800
C1454       C  0.57500245  0.07924247  0.43680510    -0.21000
C1455       C  0.55949153  0.09325264  0.43534712    -0.09100
C1456       C  0.55929129  0.10656831  0.41915424     0.29800
F1457       F  0.54453047  0.12033128  0.41729105    -0.19600
H1458       H  0.57349513  0.11568940  0.39196610     0.18200
H1459       H  0.57553329  0.06899841  0.44927423     0.18200
F1460       F  0.60499929  0.06491685  0.42438648    -0.19600
C1461       C  0.60033997  0.43972701  0.04541674    -0.21000
C1462       C  0.61357609  0.43752859  0.06147248    -0.09100
C1463       C  0.61354358  0.45174896  0.07684601     0.29800
C1464       C  0.59981068  0.46744412  0.07655359    -0.21000
C1465       C  0.58631582  0.46960860  0.06062189    -0.09100
C1466       C  0.58705841  0.45585212  0.04474430     0.29800
F1467       F  0.57449877  0.45753529  0.02894371    -0.19600
H1468       H  0.60034907  0.42895846  0.03336686     0.18200
H1469       H  0.59967192  0.47789845  0.08887667     0.18200
F1470       F  0.62623410  0.45000230  0.09255329    -0.19600
C1471       C  0.61621454  0.06436721  0.04767978    -0.21000
C1472       C  0.62583468  0.08284989  0.04568631    -0.09100
C1473       C  0.63592278  0.08704449  0.02766931     0.29800
C1474       C  0.63675492  0.07280939  0.01237265    -0.21000
C1475       C  0.62706991  0.05443658  0.01445096    -0.09100
C1476       C  0.61661098  0.05039078  0.03217213     0.29800
F1477       F  0.60732548  0.03263172  0.03476489    -0.19600
H1478       H  0.60818824  0.06074486  0.06122434     0.18200
H1479       H  0.64484333  0.07620319  0.99878881     0.18200
F1480       F  0.64548089  0.10461963  0.02494662    -0.19600
C1481       C  0.60915878  0.12775098  0.22308737    -0.21000
C1482       C  0.61976978  0.11908119  0.20715940    -0.09100
C1483       C  0.63517013  0.10545901  0.21151335     0.29800
C1484       C  0.63976462  0.10064609  0.23127957    -0.21000
C1485       C  0.62903005  0.10905856  0.24718555    -0.09100
C1486       C  0.61359291  0.12268104  0.24293344     0.29800
F1487       F  0.60331286  0.13166743  0.25791990    -0.19600
H1488       H  0.59737435  0.13841865  0.22015665     0.18200
H1489       H  0.65178317  0.09022507  0.23415184     0.18200
F1490       F  0.64642158  0.09735327  0.19673995    -0.19600
C1491       C  0.62197924  0.27313714  0.09985250    -0.21000
C1492       C  0.63886395  0.27664780  0.08790682    -0.09100
C1493       C  0.64963811  0.26036936  0.08029827     0.29800
C1494       C  0.64379140  0.24097801  0.08476074    -0.21000
C1495       C  0.62723484  0.23733950  0.09708868    -0.09100
C1496       C  0.61630300  0.25361071  0.10463809     0.29800
F1497       F  0.59998533  0.25066240  0.11627923    -0.19600
H1498       H  0.61349569  0.28551198  0.10586227     0.18200
H1499       H  0.65250185  0.22875284  0.07877990     0.18200
F1500       F  0.66567282  0.26318162  0.06822650    -0.19600
C1501       C  0.94564322  0.06101378  0.38715797    -0.21000
C1502       C  0.94438052  0.07565782  0.40205638    -0.09100
C1503       C  0.96012678  0.07767864  0.41578794     0.29800
C1504       C  0.97691382  0.06533422  0.41447741    -0.21000
C1505       C  0.97851219  0.05118870  0.39913747    -0.09100
C1506       C  0.96266153  0.04902312  0.38551653     0.29800
F1507       F  0.96351790  0.03517618  0.37075851    -0.19600
H1508       H  0.93370438  0.05926467  0.37640063     0.18200
H1509       H  0.98891121  0.06717541  0.42515587     0.18200
F1510       F  0.95920853  0.09147266  0.43057980    -0.19600
C1511       C  0.90141827  0.25811988  0.36391593    -0.21000
C1512       C  0.91189632  0.26854538  0.37878515    -0.09100
C1513       C  0.91601180  0.25891651  0.39699152     0.29800
C1514       C  0.90991982  0.23917880  0.40001604    -0.21000
C1515       C  0.89920449  0.22895758  0.38519199    -0.09100
C1516       C  0.89499623  0.23861801  0.36709677     0.29800
F1517       F  0.88524625  0.22899028  0.35219310    -0.19600
H1518       H  0.89797933  0.26513944  0.34978327     0.18200
H1519       H  0.91337674  0.23192540  0.41403521     0.18200
F1520       F  0.92637124  0.26831549  0.41161837    -0.19600
C1521       C  0.77671528  0.09565310  0.37874180    -0.21000
C1522       C  0.78628784  0.11111692  0.36838193    -0.09100
C1523       C  0.77582759  0.12112000  0.35317377     0.29800
C1524       C  0.75622243  0.11573962  0.34851842    -0.21000
C1525       C  0.74648748  0.10057660  0.35914101    -0.09100
C1526       C  0.75689733  0.09058375  0.37438239     0.29800
F1527       F  0.74809253  0.07565641  0.38478038    -0.19600
H1528       H  0.78445235  0.08775105  0.39051791     0.18200
H1529       H  0.74852058  0.12369459  0.33675491     0.18200
F1530       F  0.78465357  0.13581536  0.34245865    -0.19600
C1531       C  0.95702384  0.42961139  0.05433191    -0.21000
C1532       C  0.95951945  0.41628818  0.07026385    -0.09100
C1533       C  0.97646000  0.40385901  0.07060712     0.29800
C1534       C  0.99037420  0.40454489  0.05501572    -0.21000
C1535       C  0.98791404  0.41795906  0.03912346    -0.09100
C1536       C  0.97116428  0.43063236  0.03900181     0.29800
F1537       F  0.96805689  0.44349562  0.02369347    -0.19600
H1538       H  0.94407782  0.43928975  0.05377161     0.18200
H1539       H  0.00314314  0.39462405  0.05539647     0.18200
F1540       F  0.97917097  0.39048998  0.08554949    -0.19600
C1541       C  0.90447528  0.37733562  0.23799164    -0.21000
C1542       C  0.91578759  0.39105520  0.22697900    -0.09100
C1543       C  0.93227799  0.40031013  0.23613096     0.29800
C1544       C  0.93743298  0.39558042  0.25581192    -0.21000
C1545       C  0.92647683  0.38135450  0.26648482    -0.09100
C1546       C  0.90978681  0.37242465  0.25749398     0.29800
F1547       F  0.89832030  0.35924006  0.26767907    -0.19600
H1548       H  0.89169883  0.37001472  0.23137909     0.18200
H1549       H  0.95021653  0.40275020  0.26260380     0.18200
F1550       F  0.94322480  0.41412817  0.22624588    -0.19600
C1551       C  0.79128458  0.37476755  0.11921935    -0.21000
C1552       C  0.80197084  0.39011544  0.10982782    -0.09100
C1553       C  0.79231939  0.40173563  0.09526915     0.29800
C1554       C  0.77246233  0.39783484  0.09009433    -0.21000
C1555       C  0.76196747  0.38212664  0.09909340    -0.09100
C1556       C  0.77152241  0.37072010  0.11388832     0.29800
F1557       F  0.76165257  0.35599950  0.12360878    -0.19600
H1558       H  0.79831777  0.36569333  0.13057797     0.18200
H1559       H  0.76538592  0.40692761  0.07877710     0.18200
F1560       F  0.80185559  0.41718134  0.08639288    -0.19600
C1561       C  0.59963901  0.91037784  0.39998336    -0.21000
C1562       C  0.61328695  0.89452131  0.40132050    -0.09100
C1563       C  0.61146457  0.88085109  0.41711178     0.29800
C1564       C  0.59634025  0.88312579  0.43128209    -0.21000
C1565       C  0.58294385  0.89918610  0.43018968    -0.09100
C1566       C  0.58469874  0.91284814  0.41439477     0.29800
F1567       F  0.57174914  0.92831888  0.41263947    -0.19600
H1568       H  0.60076985  0.92110358  0.38797801     0.18200
H1569       H  0.59524044  0.87239874  0.44330025     0.18200
F1570       F  0.62398007  0.86500812  0.41864626    -0.19600
C1571       C  0.96145985  0.57414435  0.43067181    -0.21000
C1572       C  0.94618920  0.57422530  0.41632212    -0.09100
C1573       C  0.93151248  0.55930657  0.41690053     0.29800
C1574       C  0.93211515  0.54463872  0.43167095    -0.21000
C1575       C  0.94756299  0.54434967  0.44582130    -0.09100
C1576       C  0.96232489  0.55920661  0.44517174     0.29800
F1577       F  0.97721044  0.55967618  0.45891584    -0.19600
H1578       H  0.97288915  0.58552653  0.43049750     0.18200
H1579       H  0.92052264  0.53342269  0.43200876     0.18200
F1580       F  0.91621537  0.55926775  0.40361986    -0.19600
C1581       C  0.61705698  0.57120428  0.07655881    -0.21000
C1582       C  0.61493309  0.58813803  0.06442904    -0.09100
C1583       C  0.59788157  0.58981016  0.05223486     0.29800
C1584       C  0.58369142  0.57445999  0.05176239    -0.21000
C1585       C  0.58586209  0.55758443  0.06396215    -0.09100
C1586       C  0.60254838  0.55623244  0.07660307     0.29800
F1587       F  0.60512461  0.54014755  0.08858869    -0.19600
H1588       H  0.62993855  0.56963677  0.08620778     0.18200
H1589       H  0.57082296  0.57587592  0.04206369     0.18200
F1590       F  0.59521005  0.60594470  0.04034550    -0.19600
C1591       C  0.98639842  0.61595494  0.02787581    -0.21000
C1592       C  0.00130218  0.60127889  0.02899530    -0.09100
C1593       C  0.00193034  0.58860553  0.04568159     0.29800
C1594       C  0.98762211  0.59045293  0.06081277    -0.21000
C1595       C  0.97223588  0.60459303  0.05925429    -0.09100
C1596       C  0.97183472  0.61748413  0.04274774     0.29800
F1597       F  0.95756371  0.63177427  0.04116308    -0.19600
H1598       H  0.98576277  0.62596126  0.01521641     0.18200
H1599       H  0.98824497  0.58048877  0.07350264     0.18200
F1600       F  0.01652955  0.57467305  0.04749430    -0.19600
C1601       C  0.91352010  0.60352960  0.23157258    -0.21000
C1602       C  0.92569182  0.61281482  0.21726905    -0.09100
C1603       C  0.94142119  0.62506066  0.22372872     0.29800
C1604       C  0.94434668  0.62849890  0.24410782    -0.21000
C1605       C  0.93199517  0.61945070  0.25840741    -0.09100
C1606       C  0.91674804  0.60659801  0.25197802     0.29800
F1607       F  0.90435460  0.59775156  0.26531014    -0.19600
H1608       H  0.90137246  0.59397739  0.22692203     0.18200
H1609       H  0.95626226  0.63835004  0.24872800     0.18200
F1610       F  0.95336337  0.63450351  0.21039700    -0.19600
C1611       C  0.80587059  0.61311370  0.08063472    -0.21000
C1612       C  0.81302563  0.61994094  0.09916152    -0.09100
C1613       C  0.80005563  0.63089989  0.11161569     0.29800
C1614       C  0.78047171  0.63489353  0.10556442    -0.21000
C1615       C  0.77337049  0.62787013  0.08719405    -0.09100
C1616       C  0.78617629  0.61695587  0.07472093     0.29800
F1617       F  0.77987183  0.61072691  0.05650802    -0.19600
H1618       H  0.81552371  0.60476223  0.07070719     0.18200
H1619       H  0.77082406  0.64361102  0.11519662     0.18200
F1620       F  0.80645069  0.63852874  0.12924430    -0.19600
C1621       C  0.96347254  0.94883191  0.40662431    -0.21000
C1622       C  0.96620008  0.93369214  0.39241012    -0.09100
C1623       C  0.98193726  0.93527336  0.37858651     0.29800
C1624       C  0.99442837  0.95195388  0.37879659    -0.21000
C1625       C  0.99180491  0.96696679  0.39315227    -0.09100
C1626       C  0.97634651  0.96518654  0.40723178     0.29800
F1627       F  0.97333098  0.97954829  0.42119289    -0.19600
H1628       H  0.95147691  0.94787071  0.41743271     0.18200
H1629       H  0.00630988  0.95305737  0.36787127     0.18200
F1630       F  0.98484275  0.92104458  0.36447769    -0.19600
C1631       C  0.80840936  0.88957791  0.37253668    -0.21000
C1632       C  0.81332511  0.87509166  0.38679689    -0.09100
C1633       C  0.79803745  0.86332974  0.39501435     0.29800
C1634       C  0.77827269  0.86576457  0.38863421    -0.21000
C1635       C  0.77350869  0.87974681  0.37378489    -0.09100
C1636       C  0.78875407  0.89186689  0.36600806     0.29800
F1637       F  0.78470179  0.90616557  0.35228699    -0.19600
H1638       H  0.81989165  0.89884326  0.36601393     0.18200
H1639       H  0.76677976  0.85637287  0.39495459     0.18200
F1640       F  0.80214157  0.84965025  0.40934449    -0.19600
C1641       C  0.92897061  0.75630884  0.39371144    -0.21000
C1642       C  0.93727366  0.77177688  0.38235090    -0.09100
C1643       C  0.95112171  0.76710674  0.36724768     0.29800
C1644       C  0.95596911  0.74723969  0.36321421    -0.21000
C1645       C  0.94747337  0.73177976  0.37443023    -0.09100
C1646       C  0.93414819  0.73649437  0.38997207     0.29800
F1647       F  0.92526945  0.72195369  0.40085353    -0.19600
H1648       H  0.91831116  0.75956222  0.40543759     0.18200
H1649       H  0.96620919  0.74389176  0.35114280     0.18200
F1650       F  0.95919160  0.78159658  0.35569440    -0.19600
C1651       C  0.64776744  0.97684411  0.03328314    -0.21000
C1652       C  0.63812387  0.97071574  0.01576462    -0.09100
C1653       C  0.63110954  0.95115712  0.01413349     0.29800
C1654       C  0.63403869  0.93778145  0.02979257    -0.21000
C1655       C  0.64369053  0.94379442  0.04745131    -0.09100
C1656       C  0.65033685  0.96359070  0.04916621     0.29800
F1657       F  0.65986188  0.97000595  0.06583411    -0.19600
H1658       H  0.65314988  0.99198187  0.03470442     0.18200
H1659       H  0.62863469  0.92269610  0.02810406     0.18200
F1660       F  0.62198413  0.94484707  0.99717756    -0.19600
C1661       C  0.68087660  0.88207558  0.21553647    -0.21000
C1662       C  0.66727151  0.89451964  0.20558637    -0.09100
C1663       C  0.65659260  0.90883719  0.21661621     0.29800
C1664       C  0.65931570  0.91036241  0.23730437    -0.21000
C1665       C  0.67304628  0.89798784  0.24717817    -0.09100
C1666       C  0.68388941  0.88385034  0.23606892     0.29800
F1667       F  0.69685261  0.87118887  0.24512086    -0.19600
H1668       H  0.68925194  0.87090967  0.20737742     0.18200
H1669       H  0.65079171  0.92130495  0.24561123     0.18200
F1670       F  0.64300241  0.92081180  0.20757303    -0.19600
C1671       C  0.66957550  0.78045891  0.06860072    -0.21000
C1672       C  0.65977813  0.78601808  0.08631471    -0.09100
C1673       C  0.65205034  0.77102790  0.09881684     0.29800
C1674       C  0.65437861  0.75094911  0.09377581    -0.21000
C1675       C  0.66481092  0.74545897  0.07648699    -0.09100
C1676       C  0.67234047  0.76033924  0.06385612     0.29800
F1677       F  0.68231810  0.75539873  0.04691229    -0.19600
H1678       H  0.67568547  0.79166594  0.05874732     0.18200
H1679       H  0.64855370  0.73964121  0.10369963     0.18200
F1680       F  0.64212198  0.77570258  0.11585898    -0.19600
C1681       C  0.10122184  0.59892649  0.41578134    -0.21000
C1682       C  0.11707474  0.59826238  0.40210436    -0.09100
C1683       C  0.13203730  0.58374853  0.40435928     0.29800
C1684       C  0.13107749  0.57012117  0.42008991    -0.21000
C1685       C  0.11497706  0.57045686  0.43354597    -0.09100
C1686       C  0.09998596  0.58500012  0.43122762     0.29800
F1687       F  0.08431206  0.58599683  0.44405006    -0.19600
H1688       H  0.08956446  0.61002477  0.41426408     0.18200
H1689       H  0.14280128  0.55909071  0.42157395     0.18200
F1690       F  0.14783402  0.58304641  0.39166955    -0.19600
C1691       C  0.48099015  0.88565393  0.43292536    -0.21000
C1692       C  0.49558377  0.90049443  0.43094012    -0.09100
C1693       C  0.49466157  0.91363077  0.41462514     0.29800
C1694       C  0.47931800  0.91184614  0.40059511    -0.21000
C1695       C  0.46443576  0.89733020  0.40292921    -0.09100
C1696       C  0.46540234  0.88420008  0.41918350     0.29800
F1697       F  0.45156458  0.86965626  0.42151605    -0.19600
H1698       H  0.48146702  0.87535462  0.44535040     0.18200
H1699       H  0.47883975  0.92205301  0.38809452     0.18200
F1700       F  0.50874548  0.92791320  0.41203265    -0.19600
C1701       C  0.48263094  0.55324740  0.07959622    -0.21000
C1702       C  0.49898075  0.55603524  0.06676999    -0.09100
C1703       C  0.50034690  0.57366684  0.05563850     0.29800
C1704       C  0.48603622  0.58864352  0.05800337    -0.21000
C1705       C  0.46977005  0.58602911  0.07096571    -0.09100
C1706       C  0.46788829  0.56796562  0.08142987     0.29800
F1707       F  0.45228561  0.56482998  0.09397622    -0.19600
H1708       H  0.48127100  0.53963035  0.08813811     0.18200
H1709       H  0.48763644  0.60232486  0.04961994     0.18200
F1710       F  0.51594626  0.57674703  0.04307759    -0.19600
C1711       C  0.41391434  0.96265159  0.05364944    -0.21000
C1712       C  0.42601018  0.94581860  0.05046293    -0.09100
C1713       C  0.43769517  0.94473022  0.03300728     0.29800
C1714       C  0.43736562  0.96028088  0.01920996    -0.21000
C1715       C  0.42516834  0.97696645  0.02234162    -0.09100
C1716       C  0.41329337  0.97803243  0.03959016     0.29800
F1717       F  0.40165905  0.99422302  0.04315898    -0.19600
H1718       H  0.40482578  0.96383785  0.06697720     0.18200
H1719       H  0.44662014  0.95926581  0.00596954     0.18200
F1720       F  0.45003078  0.92904808  0.02956151    -0.19600
C1721       C  0.41375443  0.90566955  0.21229767    -0.21000
C1722       C  0.43088017  0.89474268  0.20700962    -0.09100
C1723       C  0.44201125  0.88535067  0.22212167     0.29800
C1724       C  0.43593141  0.88675048  0.24201649    -0.21000
C1725       C  0.41863871  0.89743217  0.24726411    -0.09100
C1726       C  0.40760754  0.90696356  0.23218543     0.29800
F1727       F  0.39114980  0.91792281  0.23661382    -0.19600
H1728       H  0.40482781  0.91296637  0.20099075     0.18200
H1729       H  0.44470548  0.87924312  0.25331121     0.18200
F1730       F  0.45896019  0.87510276  0.21780551    -0.19600
C1731       C  0.45756771  0.77357081  0.09857472    -0.21000
C1732       C  0.44542754  0.78834133  0.08995813    -0.09100
C1733       C  0.42940325  0.78251554  0.07771645     0.29800
C1734       C  0.42538688  0.76239807  0.07460057    -0.21000
C1735       C  0.43722782  0.74759589  0.08346079    -0.09100
C1736       C  0.45365868  0.75333013  0.09522294     0.29800
F1737       F  0.46528028  0.73947584  0.10431731    -0.19600
H1738       H  0.46995017  0.77771587  0.10809751     0.18200
H1739       H  0.41268755  0.75838279  0.06544950     0.18200
F1740       F  0.41680690  0.79616278  0.06966744    -0.19600
C1741       C  0.09329569  0.97903708  0.39908438    -0.21000
C1742       C  0.07600004  0.97773328  0.38735725    -0.09100
C1743       C  0.07394761  0.96192283  0.37377670     0.29800
C1744       C  0.08868284  0.94725407  0.37249920    -0.21000
C1745       C  0.10599347  0.94846794  0.38422555    -0.09100
C1746       C  0.10840583  0.96470315  0.39728274     0.29800
F1747       F  0.12494637  0.96627811  0.40886551    -0.19600
H1748       H  0.09509376  0.99117359  0.40958657     0.18200
H1749       H  0.08659411  0.93493432  0.36227119     0.18200
F1750       F  0.05729977  0.96021919  0.36233990    -0.19600
C1751       C  0.26918262  0.90851659  0.35938118    -0.21000
C1752       C  0.26252667  0.89433473  0.37321295    -0.09100
C1753       C  0.27663756  0.88246711  0.38325501     0.29800
C1754       C  0.29698949  0.88445409  0.37910384    -0.21000
C1755       C  0.30360046  0.89802186  0.36462960    -0.09100
C1756       C  0.28951772  0.91026790  0.35497135     0.29800
F1757       F  0.29537298  0.92403371  0.34136861    -0.19600
H1758       H  0.25858078  0.91783642  0.35151700     0.18200
H1759       H  0.30753010  0.87491472  0.38677934     0.18200
F1760       F  0.27078926  0.86900814  0.39717319    -0.19600
C1761       C  0.14818709  0.76030625  0.34481472    -0.21000
C1762       C  0.13136479  0.75124443  0.35333959    -0.09100
C1763       C  0.11978617  0.76185213  0.36726374     0.29800
C1764       C  0.12501374  0.78128782  0.37248708    -0.21000
C1765       C  0.14210162  0.79012250  0.36429919    -0.09100
C1766       C  0.15366237  0.77952219  0.35036692     0.29800
F1767       F  0.16998374  0.78787558  0.34177235    -0.19600
H1768       H  0.15735055  0.75236605  0.33411001     0.18200
H1769       H  0.11594461  0.78931595  0.38321073     0.18200
F1770       F  0.10325027  0.75360108  0.37551621    -0.19600
C1771       C  0.09008913  0.58027964  0.03675979    -0.21000
C1772       C  0.08823016  0.59631280  0.02338907    -0.09100
C1773       C  0.10264018  0.61154576  0.02386319     0.29800
C1774       C  0.11859809  0.61055222  0.03735498    -0.21000
C1775       C  0.12015062  0.59469344  0.05092166    -0.09100
C1776       C  0.10575489  0.57954312  0.05051614     0.29800
F1777       F  0.10708564  0.56378275  0.06312180    -0.19600
H1778       H  0.07925724  0.56832811  0.03670128     0.18200
H1779       H  0.12952202  0.62241918  0.03751109     0.18200
F1780       F  0.10154461  0.62719335  0.01110279    -0.19600
C1781       C  0.28589632  0.61873239  0.08083134    -0.21000
C1782       C  0.27479028  0.63115909  0.09350487    -0.09100
C1783       C  0.28382343  0.64817079  0.10166919     0.29800
C1784       C  0.30377414  0.65246605  0.09743757    -0.21000
C1785       C  0.31514148  0.63971329  0.08527188    -0.09100
C1786       C  0.30597532  0.62282108  0.07687113     0.29800
F1787       F  0.31627214  0.61040514  0.06460959    -0.19600
H1788       H  0.27914258  0.60558313  0.07437469     0.18200
H1789       H  0.31044707  0.66555693  0.10407554     0.18200
F1790       F  0.27327564  0.66082272  0.11348104    -0.19600
C1791       C  0.16508216  0.63764617  0.21405932    -0.21000
C1792       C  0.15738432  0.62021852  0.20544488    -0.09100
C1793       C  0.14300525  0.60917195  0.21597805     0.29800
C1794       C  0.13686717  0.61533407  0.23498179    -0.21000
C1795       C  0.14462752  0.63276881  0.24353677    -0.09100
C1796       C  0.15873781  0.64396276  0.23282700     0.29800
F1797       F  0.16700065  0.66063489  0.24072510    -0.19600
H1798       H  0.17600165  0.64656641  0.20620167     0.18200
H1799       H  0.12594396  0.60653473  0.24298522     0.18200
F1800       F  0.13532116  0.59216827  0.20822224    -0.19600
C1801       C  0.61423507  0.89395045  0.52996498    -0.21000
C1802       C  0.61361217  0.90836806  0.54507749    -0.09100
C1803       C  0.59809452  0.92245225  0.54535044     0.29800
C1804       C  0.58347397  0.92219621  0.53046453    -0.21000
C1805       C  0.58380615  0.90744991  0.51561789    -0.09100
C1806       C  0.59926764  0.89324873  0.51550378     0.29800
F1807       F  0.60005347  0.87887444  0.50125539    -0.19600
H1808       H  0.62608785  0.88295293  0.52964761     0.18200
H1809       H  0.57161465  0.93318177  0.53081427     0.18200
F1810       F  0.59728068  0.93659812  0.55981299    -0.19600
C1811       C  0.60391183  0.56547936  0.90177586    -0.21000
C1812       C  0.60543080  0.58012495  0.88691014    -0.09100
C1813       C  0.59053155  0.58130722  0.87216328     0.29800
C1814       C  0.57452300  0.56798833  0.87224692    -0.21000
C1815       C  0.57273772  0.55359092  0.88730813    -0.09100
C1816       C  0.58754865  0.55248237  0.90218547     0.29800
F1817       F  0.58649394  0.53850906  0.91677270    -0.19600
H1818       H  0.61523310  0.56433512  0.91326569     0.18200
H1819       H  0.56335014  0.56906741  0.86060275     0.18200
F1820       F  0.59171975  0.59500123  0.85732358    -0.19600
C1821       C  0.93725358  0.56426851  0.56220009    -0.21000
C1822       C  0.95076288  0.58006918  0.56005351    -0.09100
C1823       C  0.96391553  0.58017145  0.54366113     0.29800
C1824       C  0.96355304  0.56457911  0.52977657    -0.21000
C1825       C  0.94973203  0.54903098  0.53177227    -0.09100
C1826       C  0.93653650  0.54900636  0.54807164     0.29800
F1827       F  0.92327023  0.53395754  0.55059528    -0.19600
H1828       H  0.92698100  0.56390142  0.57468640     0.18200
H1829       H  0.97384426  0.56478909  0.51729550     0.18200
F1830       F  0.97743220  0.59501804  0.54133906    -0.19600
C1831       C  0.96586976  0.57926596  0.92742438    -0.21000
C1832       C  0.96501757  0.59414115  0.91274292    -0.09100
C1833       C  0.97951806  0.60924888  0.91278393     0.29800
C1834       C  0.99443264  0.60955582  0.92737713    -0.21000
C1835       C  0.99556119  0.59454107  0.94191472    -0.09100
C1836       C  0.98117641  0.57923677  0.94172100     0.29800
F1837       F  0.98168762  0.56444694  0.95550755    -0.19600
H1838       H  0.95488289  0.56745007  0.92757751     0.18200
H1839       H  0.00534096  0.62144126  0.92710764     0.18200
F1840       F  0.97899836  0.62402521  0.89898475    -0.19600
C1841       C  0.79601912  0.59436193  0.87959190    -0.21000
C1842       C  0.80683556  0.60556570  0.86560918    -0.09100
C1843       C  0.79745795  0.62164655  0.85600637     0.29800
C1844       C  0.77770272  0.62654317  0.86051445    -0.21000
C1845       C  0.76674088  0.61530422  0.87436542    -0.09100
C1846       C  0.77599965  0.59896147  0.88373688     0.29800
F1847       F  0.76593836  0.58780773  0.89728211    -0.19600
H1848       H  0.80301630  0.58189294  0.88709834     0.18200
H1849       H  0.77090834  0.63910744  0.85299165     0.18200
F1850       F  0.80758096  0.63305465  0.84270844    -0.19600
C1851       C  0.94122404  0.62857119  0.75247203    -0.21000
C1852       C  0.92601222  0.61453697  0.75568948    -0.09100
C1853       C  0.91706635  0.60528914  0.73915126     0.29800
C1854       C  0.92299029  0.61026142  0.71981436    -0.21000
C1855       C  0.93777531  0.62469086  0.71651572    -0.09100
C1856       C  0.94698918  0.63375108  0.73305564     0.29800
F1857       F  0.96178628  0.64729440  0.73051397    -0.19600
H1858       H  0.94840852  0.63581069  0.76499507     0.18200
H1859       H  0.91566645  0.60303948  0.70736879     0.18200
F1860       F  0.90287743  0.59110946  0.74162237    -0.19600
C1861       C  0.62176124  0.93473495  0.91534149    -0.21000
C1862       C  0.63691780  0.93482431  0.90086763    -0.09100
C1863       C  0.65060568  0.95065993  0.90054985     0.29800
C1864       C  0.64919598  0.96603950  0.91460024    -0.21000
C1865       C  0.63384905  0.96615898  0.92890727    -0.09100
C1866       C  0.62003799  0.95036521  0.92909317     0.29800
F1867       F  0.60519942  0.94973460  0.94289181    -0.19600
H1868       H  0.61107208  0.92266272  0.91582129     0.18200
H1869       H  0.66002861  0.97798431  0.91418350     0.18200
F1870       F  0.66572280  0.95094904  0.88704912    -0.19600
C1871       C  0.63712424  0.87399528  0.72965464    -0.21000
C1872       C  0.64788552  0.88477957  0.74407618    -0.09100
C1873       C  0.66252019  0.89836568  0.73770496     0.29800
C1874       C  0.66646429  0.90080641  0.71737002    -0.21000
C1875       C  0.65570452  0.89006932  0.70299847    -0.09100
C1876       C  0.64084358  0.87672572  0.70926454     0.29800
F1877       F  0.63055391  0.86570222  0.69576066    -0.19600
H1878       H  0.62583840  0.86339632  0.73418195     0.18200
H1879       H  0.67800871  0.91112184  0.71282138     0.18200
F1880       F  0.67368659  0.90864839  0.75107807    -0.19600
C1881       C  0.65830553  0.76910208  0.87745300    -0.21000
C1882       C  0.64694626  0.77427467  0.86057934    -0.09100
C1883       C  0.63958251  0.75895817  0.84821250     0.29800
C1884       C  0.64369538  0.73902797  0.85260320    -0.21000
C1885       C  0.65553054  0.73398152  0.86908872    -0.09100
C1886       C  0.66274147  0.74914569  0.88158075     0.29800
F1887       F  0.67375338  0.74462899  0.89797387    -0.19600
H1888       H  0.66414893  0.78052191  0.88723445     0.18200
H1889       H  0.63796047  0.72750651  0.84285518     0.18200
F1890       F  0.62813980  0.76311224  0.83202930    -0.19600
C1891       C  0.97993160  0.94343160  0.59004446    -0.21000
C1892       C  0.96490158  0.94089982  0.57567579    -0.09100
C1893       C  0.96279820  0.95508323  0.56038373     0.29800
C1894       C  0.97548903  0.97151778  0.55958530    -0.21000
C1895       C  0.99020635  0.97431855  0.57419917    -0.09100
C1896       C  0.99236184  0.96012930  0.58949625     0.29800
F1897       F  0.00674178  0.96215019  0.60362989    -0.19600
H1898       H  0.98178777  0.93267238  0.60193796     0.18200
H1899       H  0.97365769  0.98221672  0.54762827     0.18200
F1900       F  0.94880194  0.95284332  0.54591541    -0.19600
C1901       C  0.92444159  0.76420264  0.58345218    -0.21000
C1902       C  0.93470282  0.77949068  0.59343353    -0.09100
C1903       C  0.94972266  0.77438422  0.60720940     0.29800
C1904       C  0.95384613  0.75436814  0.61129255    -0.21000
C1905       C  0.94337854  0.73914972  0.60148710    -0.09100
C1906       C  0.92874121  0.74422590  0.58735122     0.29800
F1907       F  0.91782247  0.72994052  0.57808975    -0.19600
H1908       H  0.91284176  0.76770799  0.57275440     0.18200
H1909       H  0.96515859  0.75073269  0.62225978     0.18200
F1910       F  0.95974323  0.78862396  0.61747871    -0.19600
C1911       C  0.80148266  0.87356727  0.59400360    -0.21000
C1912       C  0.81172327  0.88494037  0.57974323    -0.09100
C1913       C  0.80148320  0.90030276  0.56974950     0.29800
C1914       C  0.78134446  0.90412418  0.57407212    -0.21000
C1915       C  0.77133441  0.89304956  0.58875759    -0.09100
C1916       C  0.78158511  0.87766262  0.59863271     0.29800
F1917       F  0.77227692  0.86625216  0.61250352    -0.19600
H1918       H  0.80902283  0.86172325  0.60196945     0.18200
H1919       H  0.77367678  0.91598802  0.56624713     0.18200
F1920       F  0.81080634  0.91139071  0.55562518    -0.19600
C1921       C  0.48326479  0.89730685  0.54918919    -0.21000
C1922       C  0.46661035  0.90979739  0.54688201    -0.09100
C1923       C  0.46535723  0.92205887  0.52988280     0.29800
C1924       C  0.48051544  0.92168910  0.51546712    -0.21000
C1925       C  0.49681062  0.90867354  0.51746994    -0.09100
C1926       C  0.49809393  0.89649731  0.53449471     0.29800
F1927       F  0.51381125  0.88395661  0.53701977    -0.19600
H1928       H  0.48452061  0.88774454  0.56214091     0.18200
H1929       H  0.47925548  0.93117915  0.50245834     0.18200
F1930       F  0.44964259  0.93459320  0.52733224    -0.19600
C1931       C  0.10134302  0.58730439  0.52328516    -0.21000
C1932       C  0.11633024  0.57272055  0.52153519    -0.09100
C1933       C  0.13235834  0.57291138  0.53516552     0.29800
C1934       C  0.13307236  0.58719243  0.55038126    -0.21000
C1935       C  0.11823459  0.60187695  0.55188148    -0.09100
C1936       C  0.10241475  0.60193917  0.53812854     0.29800
F1937       F  0.08772453  0.61583784  0.53938548    -0.19600
H1938       H  0.08886308  0.58749948  0.51300586     0.18200
H1939       H  0.14541819  0.58700004  0.56082591     0.18200
F1940       F  0.14711590  0.55906684  0.53409142    -0.19600
C1941       C  0.45584682  0.57744160  0.89457530    -0.21000
C1942       C  0.45794651  0.59199089  0.87966720    -0.09100
C1943       C  0.47403301  0.59056787  0.86622505     0.29800
C1944       C  0.48755367  0.57470945  0.86761314    -0.21000
C1945       C  0.48554305  0.56029317  0.88266033    -0.09100
C1946       C  0.46960850  0.56185242  0.89623510     0.29800
F1947       F  0.46695903  0.54797032  0.91070622    -0.19600
H1948       H  0.44357556  0.57821960  0.90508874     0.18200
H1949       H  0.49972280  0.57376270  0.85698743     0.18200
F1950       F  0.47631490  0.60405732  0.85133054    -0.19600
C1951       C  0.08077198  0.60606692  0.92119048    -0.21000
C1952       C  0.08157758  0.59166360  0.93633881    -0.09100
C1953       C  0.09605724  0.57649424  0.93521594     0.29800
C1954       C  0.10965414  0.57603196  0.91930063    -0.21000
C1955       C  0.10863981  0.59033005  0.90405211    -0.09100
C1956       C  0.09397530  0.60531007  0.90507361     0.29800
F1957       F  0.09285225  0.61968005  0.89088109    -0.19600
H1958       H  0.06976468  0.61790071  0.92175911     0.18200
H1959       H  0.12090537  0.56443118  0.91879595     0.18200
F1960       F  0.09747461  0.56253999  0.94979173    -0.19600
C1961       C  0.27097064  0.63335991  0.84426066    -0.21000
C1962       C  0.26296372  0.61696735  0.85451386    -0.09100
C1963       C  0.27473390  0.60745412  0.86906580     0.29800
C1964       C  0.29406413  0.61435162  0.87320305    -0.21000
C1965       C  0.30189575  0.63099109  0.86313714    -0.09100
C1966       C  0.29011937  0.64035358  0.84850233     0.29800
F1967       F  0.29721880  0.65594428  0.83779444    -0.19600
H1968       H  0.26229001  0.64105824  0.83302984     0.18200
H1969       H  0.30283758  0.60678576  0.88446113     0.18200
F1970       F  0.26779713  0.59125542  0.87895683    -0.19600
C1971       C  0.12759388  0.62208610  0.73864020    -0.21000
C1972       C  0.14122135  0.63325327  0.74990690    -0.09100
C1973       C  0.14938116  0.65067417  0.74174697     0.29800
C1974       C  0.14447175  0.65645178  0.72236115    -0.21000
C1975       C  0.13164787  0.64477466  0.71062203    -0.09100
C1976       C  0.12296219  0.62765338  0.71904507     0.29800
F1977       F  0.11003478  0.61630268  0.70840221    -0.19600
H1978       H  0.12110045  0.60865910  0.74476621     0.18200
H1979       H  0.15134607  0.66970595  0.71630153     0.18200
F1980       F  0.16212282  0.66212583  0.75252172    -0.19600
C1981       C  0.09103134  0.98572146  0.55565637    -0.21000
C1982       C  0.07484085  0.98304311  0.56869575    -0.09100
C1983       C  0.07453876  0.96637967  0.58133847     0.29800
C1984       C  0.09004650  0.95246571  0.58070776    -0.21000
C1985       C  0.10635798  0.95516157  0.56783513    -0.09100
C1986       C  0.10686875  0.97204133  0.55541694     0.29800
F1987       F  0.12227303  0.97493078  0.54257440    -0.19600
H1988       H  0.09149137  0.99851064  0.54582969     0.18200
H1989       H  0.08936084  0.93958089  0.59039124     0.18200
F1990       F  0.05889520  0.96321028  0.59383216    -0.19600
C1991       C  0.29236866  0.92648610  0.58820351    -0.21000
C1992       C  0.30639410  0.91245877  0.58150265    -0.09100
C1993       C  0.30005567  0.89658020  0.56945747     0.29800
C1994       C  0.27986287  0.89449868  0.56470980    -0.21000
C1995       C  0.26567155  0.90832837  0.57165685    -0.09100
C1996       C  0.27218622  0.92461506  0.58317764     0.29800
F1997       F  0.25902848  0.93815322  0.59050590    -0.19600
H1998       H  0.29704530  0.93880350  0.59753055     0.18200
H1999       H  0.27528501  0.88184854  0.55580409     0.18200
F2000       F  0.31318951  0.88246400  0.56320958    -0.19600
C2001       C  0.13612667  0.78730439  0.57272013    -0.21000
C2002       C  0.15013937  0.79810999  0.58383728    -0.09100
C2003       C  0.15987066  0.78887428  0.59993974     0.29800
C2004       C  0.15540985  0.76918774  0.60494946    -0.21000
C2005       C  0.14156002  0.75819643  0.59370134    -0.09100
C2006       C  0.13206281  0.76740477  0.57736982     0.29800
F2007       F  0.11850897  0.75740368  0.56617222    -0.19600
H2008       H  0.12859437  0.79419373  0.56019113     0.18200
H2009       H  0.16302291  0.76245463  0.61750633     0.18200
F2010       F  0.17335281  0.79902684  0.61112052    -0.19600
C2011       C  0.43596024  0.94865350  0.92116355    -0.21000
C2012       C  0.42188490  0.95041368  0.90574811    -0.09100
C2013       C  0.40882758  0.96683894  0.90559508     0.29800
C2014       C  0.40968393  0.98104296  0.92086218    -0.21000
C2015       C  0.42392281  0.97938115  0.93614962    -0.09100
C2016       C  0.43720196  0.96315297  0.93609626     0.29800
F2017       F  0.45098642  0.96101446  0.95079438    -0.19600
H2018       H  0.44618800  0.93614412  0.92149200     0.18200
H2019       H  0.39936310  0.99348383  0.92063330     0.18200
F2020       F  0.39485620  0.96883396  0.89105631    -0.19600
C2021       C  0.40845899  0.78542732  0.87113220    -0.21000
C2022       C  0.42280417  0.79193941  0.85733766    -0.09100
C2023       C  0.43355577  0.77764635  0.84626416     0.29800
C2024       C  0.42972322  0.75728896  0.84880767    -0.21000
C2025       C  0.41476584  0.75085836  0.86200591    -0.09100
C2026       C  0.40428557  0.76513835  0.87329811     0.29800
F2027       F  0.39009476  0.75949580  0.88659274    -0.19600
H2028       H  0.39996498  0.79610339  0.87980140     0.18200
H2029       H  0.43802711  0.74657014  0.84000263     0.18200
F2030       F  0.44782587  0.78331823  0.83305141    -0.19600
C2031       C  0.43186481  0.89761303  0.73266557    -0.21000
C2032       C  0.41880883  0.90720784  0.74596356    -0.09100
C2033       C  0.40366277  0.91951982  0.73829705     0.29800
C2034       C  0.40129573  0.92156146  0.71762310    -0.21000
C2035       C  0.41414325  0.91162585  0.70426621    -0.09100
C2036       C  0.42971567  0.89987195  0.71205406     0.29800
F2037       F  0.44228500  0.88968645  0.69986060    -0.19600
H2038       H  0.44366350  0.88808688  0.73826508     0.18200
H2039       H  0.38924332  0.93077526  0.71206086     0.18200
F2040       F  0.39050322  0.92870830  0.75068737    -0.19600
C2041       C  0.09313034  0.47472360  0.55392462    -0.21000
C2042       C  0.10709401  0.45916450  0.55485995    -0.09100
C2043       C  0.12258503  0.45836962  0.54068387     0.29800
C2044       C  0.12378571  0.47269226  0.52561853    -0.21000
C2045       C  0.10935905  0.48780348  0.52415934    -0.09100
C2046       C  0.09407469  0.48882493  0.53858442     0.29800
F2047       F  0.08016505  0.50354146  0.53798678    -0.19600
H2048       H  0.08112011  0.47560616  0.56473103     0.18200
H2049       H  0.13577844  0.47169725  0.51479961     0.18200
F2050       F  0.13670834  0.44387017  0.54151548    -0.19600
C2051       C  0.44279433  0.11369117  0.53575611    -0.21000
C2052       C  0.44393437  0.10154012  0.55278290    -0.09100
C2053       C  0.46035531  0.08864271  0.55503128     0.29800
C2054       C  0.47499463  0.08757065  0.54015503    -0.21000
C2055       C  0.47381092  0.09977147  0.52319637    -0.09100
C2056       C  0.45769481  0.11302100  0.52119427     0.29800
F2057       F  0.45601502  0.12486635  0.50486490    -0.19600
H2058       H  0.43041910  0.12390176  0.53378006     0.18200
H2059       H  0.48739110  0.07734176  0.54196173     0.18200
F2060       F  0.46198638  0.07667616  0.57126220    -0.19600
C2061       C  0.44522200  0.46368072  0.89034315    -0.21000
C2062       C  0.44831299  0.44515330  0.88101384    -0.09100
C2063       C  0.46729705  0.44091592  0.87292287     0.29800
C2064       C  0.48267916  0.45496984  0.87408549    -0.21000
C2065       C  0.47963260  0.47327323  0.88371029    -0.09100
C2066       C  0.46079183  0.47753495  0.89191177     0.29800
F2067       F  0.45730453  0.49530655  0.90093684    -0.19600
H2068       H  0.43080958  0.46732873  0.89672197     0.18200
H2069       H  0.49709501  0.45149302  0.86759075     0.18200
F2070       F  0.47089769  0.42344160  0.86338306    -0.19600
C2071       C  0.41302622  0.07660200  0.90547613    -0.21000
C2072       C  0.42750471  0.09162981  0.90488605    -0.09100
C2073       C  0.44227461  0.09231054  0.91978472     0.29800
C2074       C  0.44230306  0.07829264  0.93521233    -0.21000
C2075       C  0.42731433  0.06376302  0.93625246    -0.09100
C2076       C  0.41276028  0.06289327  0.92114620     0.29800
F2077       F  0.39849374  0.04856309  0.92134524    -0.19600
H2078       H  0.40157945  0.07582316  0.89408698     0.18200
H2079       H  0.45378514  0.07903228  0.94657083     0.18200
F2080       F  0.45681726  0.10634881  0.91925411    -0.19600
C2081       C  0.42267323  0.25995157  0.88005626    -0.21000
C2082       C  0.40992117  0.24919542  0.86743504    -0.09100
C2083       C  0.39222692  0.25815000  0.86063542     0.29800
C2084       C  0.38746785  0.27761311  0.86625139    -0.21000
C2085       C  0.40045718  0.28869381  0.87838171    -0.09100
C2086       C  0.41814693  0.27966373  0.88530852     0.29800
F2087       F  0.43090699  0.28975636  0.89734046    -0.19600
H2088       H  0.43634523  0.25322014  0.88547393     0.18200
H2089       H  0.37381316  0.28419323  0.86063449     0.18200
F2090       F  0.37935884  0.24795137  0.84879589    -0.19600
C2091       C  0.39665445  0.15474603  0.73661631    -0.21000
C2092       C  0.40817252  0.14088804  0.74729378    -0.09100
C2093       C  0.41579552  0.12413596  0.73720343     0.29800
C2094       C  0.41163573  0.12126947  0.71690945    -0.21000
C2095       C  0.39966387  0.13490231  0.70638823    -0.09100
C2096       C  0.39238828  0.15183786  0.71644017     0.29800
F2097       F  0.38150484  0.16588374  0.70675304    -0.19600
H2098       H  0.39063756  0.16781532  0.74396718     0.18200
H2099       H  0.41752641  0.10817047  0.70951017     0.18200
F2100       F  0.42760542  0.11077437  0.74677597    -0.19600
C2101       C  0.08365975  0.06905209  0.57947722    -0.21000
C2102       C  0.06687411  0.06919463  0.56698765    -0.09100
C2103       C  0.06398187  0.08514852  0.55373349     0.29800
C2104       C  0.07756656  0.10093857  0.55338475    -0.21000
C2105       C  0.09449899  0.10066606  0.56573876    -0.09100
C2106       C  0.09752656  0.08449621  0.57870753     0.29800
F2107       F  0.11354041  0.08389476  0.59110033    -0.19600
H2108       H  0.08614578  0.05681778  0.58971972     0.18200
H2109       H  0.07502052  0.11325883  0.54326990     0.18200
F2110       F  0.04779109  0.08571986  0.54155697    -0.19600
C2111       C  0.10744363  0.26393246  0.58942573    -0.21000
C2112       C  0.12455752  0.26090774  0.57766050    -0.09100
C2113       C  0.13481688  0.27753804  0.57015455     0.29800
C2114       C  0.12837244  0.29680407  0.57486590    -0.21000
C2115       C  0.11182206  0.29982824  0.58741228    -0.09100
C2116       C  0.10120735  0.28320604  0.59443219     0.29800
F2117       F  0.08472404  0.28557908  0.60599660    -0.19600
H2118       H  0.09922827  0.25134825  0.59525947     0.18200
H2119       H  0.13672332  0.30937125  0.56919183     0.18200
F2120       F  0.15096428  0.27519147  0.55811784    -0.19600
C2121       C  0.28000522  0.16089938  0.59482025    -0.21000
C2122       C  0.28925014  0.14415715  0.58630552    -0.09100
C2123       C  0.27836525  0.13237523  0.57275721     0.29800
C2124       C  0.25842685  0.13706960  0.56837763    -0.21000
C2125       C  0.24915274  0.15373676  0.57712708    -0.09100
C2126       C  0.26025341  0.16572519  0.59027280     0.29800
F2127       F  0.25180037  0.18158359  0.59958409    -0.19600
H2128       H  0.28805997  0.17026778  0.60520964     0.18200
H2129       H  0.25019262  0.12760749  0.55821263     0.18200
F2130       F  0.28662527  0.11586939  0.56443321    -0.19600
C2131       C  0.09467765  0.43296035  0.92637922    -0.21000
C2132       C  0.09167362  0.41897698  0.91109801    -0.09100
C2133       C  0.07579128  0.40545392  0.91253944     0.29800
C2134       C  0.06339435  0.40565264  0.92931883    -0.21000
C2135       C  0.06627954  0.41972501  0.94454421    -0.09100
C2136       C  0.08185403  0.43360819  0.94284841     0.29800
F2137       F  0.08504769  0.44734022  0.95737696    -0.19600
H2138       H  0.10689224  0.44347088  0.92545817     0.18200
H2139       H  0.05138097  0.39492213  0.93035026     0.18200
F2140       F  0.07272468  0.39160764  0.89809787    -0.19600
C2141       C  0.26071153  0.41987368  0.84981384    -0.21000
C2142       C  0.24609926  0.40890258  0.86003262    -0.09100
C2143       C  0.25211918  0.39536207  0.87485225     0.29800
C2144       C  0.27239174  0.39242467  0.87886800    -0.21000
C2145       C  0.28709484  0.40324009  0.86858263    -0.09100
C2146       C  0.28104016  0.41731198  0.85421363     0.29800
F2147       F  0.29471910  0.42798525  0.84382265    -0.19600
H2148       H  0.25635796  0.43045532  0.83841983     0.18200
H2149       H  0.27660110  0.38159376  0.89007395     0.18200
F2150       F  0.23846025  0.38430828  0.88488479    -0.19600
C2151       C  0.10734568  0.42113800  0.74178108    -0.21000
C2152       C  0.12272004  0.40897248  0.74930862    -0.09100
C2153       C  0.13109713  0.39435631  0.73680403     0.29800
C2154       C  0.12419800  0.39194821  0.71725380    -0.21000
C2155       C  0.10911648  0.40430669  0.70955388    -0.09100
C2156       C  0.10078006  0.41905328  0.72196890     0.29800
F2157       F  0.08595600  0.43105727  0.71514699    -0.19600
H2158       H  0.10062394  0.43244945  0.75116544     0.18200
H2159       H  0.13087331  0.38050213  0.70800338     0.18200
F2160       F  0.14556049  0.38194002  0.74364644    -0.19600
C2161       C  0.59190958  0.11375410  0.53367076    -0.21000
C2162       C  0.59284810  0.09973079  0.54918505    -0.09100
C2163       C  0.57785895  0.08513718  0.55057283     0.29800
C2164       C  0.56237292  0.08459721  0.53656288    -0.21000
C2165       C  0.56134936  0.09878261  0.52120158    -0.09100
C2166       C  0.57624990  0.11342748  0.51989641     0.29800
F2167       F  0.57604791  0.12703865  0.50492999    -0.19600
H2168       H  0.60324594  0.12514576  0.53229576     0.18200
H2169       H  0.55108611  0.07312870  0.53778231     0.18200
F2170       F  0.57848915  0.07100776  0.56502999    -0.19600
C2171       C  0.93103659  0.45422249  0.57011424    -0.21000
C2172       C  0.94436576  0.43814720  0.57148254    -0.09100
C2173       C  0.95907996  0.43569736  0.55666599     0.29800
C2174       C  0.96021573  0.44903819  0.54066413    -0.21000
C2175       C  0.94640326  0.46468125  0.53894217    -0.09100
C2176       C  0.93187028  0.46726399  0.55391131     0.29800
F2177       F  0.91858594  0.48253517  0.55300616    -0.19600
H2178       H  0.91957618  0.45638179  0.58132677     0.18200
H2179       H  0.97157854  0.44685585  0.52935345     0.18200
F2180       F  0.97249557  0.42056639  0.55776494    -0.19600
C2181       C  0.58185866  0.43865932  0.87374110    -0.21000
C2182       C  0.59598138  0.43793498  0.88917861    -0.09100
C2183       C  0.59538077  0.45251782  0.90428490     0.29800
C2184       C  0.58071666  0.46739093  0.90394427    -0.21000
C2185       C  0.56677599  0.46824855  0.88831575    -0.09100
C2186       C  0.56753129  0.45378214  0.87314333     0.29800
F2187       F  0.55418252  0.45403165  0.85790538    -0.19600
H2188       H  0.58211060  0.42766155  0.86190958     0.18200
H2189       H  0.58046904  0.47845749  0.91571765     0.18200
F2190       F  0.60861981  0.45215148  0.91961920    -0.19600
C2191       C  0.95328639  0.39371406  0.94002262    -0.21000
C2192       C  0.95254754  0.40598104  0.92307113    -0.09100
C2193       C  0.96683926  0.42115547  0.92085919     0.29800
C2194       C  0.98150558  0.42394576  0.93541967    -0.21000
C2195       C  0.98239378  0.41147866  0.95219439    -0.09100
C2196       C  0.96817925  0.39628632  0.95439043     0.29800
F2197       F  0.96837718  0.38426305  0.97066588    -0.19600
H2198       H  0.94241241  0.38198012  0.94206845     0.18200
H2199       H  0.99236230  0.43571863  0.93345862     0.18200
F2200       F  0.96630655  0.43371091  0.90500557    -0.19600
C2201       C  0.88476963  0.39225287  0.75762010    -0.21000
C2202       C  0.89688711  0.40556947  0.76823797    -0.09100
C2203       C  0.91243763  0.41543757  0.75819986     0.29800
C2204       C  0.91577017  0.41186022  0.73786257    -0.21000
C2205       C  0.90395152  0.39808740  0.72743153    -0.09100
C2206       C  0.88831981  0.38839193  0.73749246     0.29800
F2207       F  0.87622665  0.37536035  0.72784687    -0.19600
H2208       H  0.87277109  0.38439380  0.76502918     0.18200
H2209       H  0.92788817  0.41947835  0.73038893     0.18200
F2210       F  0.92422088  0.42867742  0.76794355    -0.19600
C2211       C  0.77800384  0.40703298  0.88388884    -0.21000
C2212       C  0.79247256  0.39473698  0.89273460    -0.09100
C2213       C  0.78651455  0.38066773  0.90706891     0.29800
C2214       C  0.76628601  0.37832893  0.91163176    -0.21000
C2215       C  0.75177119  0.39019356  0.90228657    -0.09100
C2216       C  0.75784172  0.40492442  0.88867843     0.29800
F2217       F  0.74427951  0.41640057  0.87895654    -0.19600
H2218       H  0.78227017  0.41805680  0.87291023     0.18200
H2219       H  0.76189198  0.36689116  0.92212709     0.18200
F2220       F  0.80001620  0.36832720  0.91574867    -0.19600
C2221       C  0.96353306  0.09005419  0.58860809    -0.21000
C2222       C  0.95025294  0.09138720  0.57249074    -0.09100
C2223       C  0.95211687  0.07795190  0.55652787     0.29800
C2224       C  0.96734631  0.06366881  0.55654392    -0.21000
C2225       C  0.98070607  0.06223257  0.57267710    -0.09100
C2226       C  0.97845679  0.07543722  0.58890222     0.29800
F2227       F  0.99098432  0.07463452  0.60480328    -0.19600
H2228       H  0.96222684  0.10026650  0.60107241     0.18200
H2229       H  0.96870649  0.05372846  0.54387111     0.18200
F2230       F  0.93968859  0.07914191  0.54056765    -0.19600
C2231       C  0.92740388  0.27484739  0.59917288    -0.21000
C2232       C  0.91327470  0.28501728  0.61083743    -0.09100
C2233       C  0.89487430  0.27588199  0.61502286     0.29800
C2234       C  0.89064985  0.25701715  0.60736227    -0.21000
C2235       C  0.90478835  0.24679387  0.59572171    -0.09100
C2236       C  0.92333005  0.25580362  0.59183074     0.29800
F2237       F  0.93727382  0.24653332  0.58040710    -0.19600
H2238       H  0.94165989  0.28164604  0.59579360     0.18200
H2239       H  0.87632662  0.25033955  0.61067632     0.18200
F2240       F  0.88065266  0.28544876  0.62585536    -0.19600
C2241       C  0.77680472  0.14494384  0.56581826    -0.21000
C2242       C  0.79252181  0.13318818  0.57316876    -0.09100
C2243       C  0.78809732  0.11649399  0.58504647     0.29800
C2244       C  0.76829648  0.11198836  0.58975391    -0.21000
C2245       C  0.75262455  0.12375807  0.58239319    -0.09100
C2246       C  0.75698356  0.14018891  0.57022252     0.29800
F2247       F  0.74217007  0.15222382  0.56344266    -0.19600
H2248       H  0.77989152  0.15791573  0.55674787     0.18200
H2249       H  0.76518269  0.09934794  0.59928187     0.18200
F2250       F  0.80286354  0.10509983  0.59295183    -0.19600
C2251       C  0.63404452  0.06846987  0.89599138    -0.21000
C2252       C  0.61987961  0.08367791  0.89847259    -0.09100
C2253       C  0.60734323  0.08356104  0.91528098     0.29800
C2254       C  0.60886821  0.06823132  0.92930609    -0.21000
C2255       C  0.62335424  0.05327171  0.92705214    -0.09100
C2256       C  0.63603495  0.05354152  0.91033077     0.29800
F2257       F  0.65015522  0.03923449  0.90772967    -0.19600
H2258       H  0.64385413  0.06839783  0.88312728     0.18200
H2259       H  0.59909301  0.06831281  0.94219502     0.18200
F2260       F  0.59340212  0.09802291  0.91791596    -0.19600
C2261       C  0.62793764  0.25670432  0.84359303    -0.21000
C2262       C  0.63359397  0.24103994  0.85630076    -0.09100
C2263       C  0.64403634  0.24549342  0.87398429     0.29800
C2264       C  0.64831899  0.26522001  0.87893413    -0.21000
C2265       C  0.64213831  0.28087354  0.86652602    -0.09100
C2266       C  0.63207897  0.27646429  0.84866384     0.29800
F2267       F  0.62669662  0.29117452  0.83586226    -0.19600
H2268       H  0.62006083  0.25369246  0.82981357     0.18200
H2269       H  0.65623183  0.26827514  0.89269020     0.18200
F2270       F  0.65059115  0.23085510  0.88630502    -0.19600
C2271       C  0.62674519  0.10814022  0.73383015    -0.21000
C2272       C  0.63625417  0.12454027  0.74267717    -0.09100
C2273       C  0.65095504  0.13484305  0.73186844     0.29800
C2274       C  0.65570349  0.12905072  0.71241791    -0.21000
C2275       C  0.64570141  0.11310729  0.70329029    -0.09100
C2276       C  0.63125347  0.10256375  0.71420574     0.29800
F2277       F  0.62174159  0.08670230  0.70604415    -0.19600
H2278       H  0.61550088  0.09990260  0.74197697     0.18200
H2279       H  0.66693384  0.13735644  0.70432753     0.18200
F2280       F  0.66104451  0.15025493  0.74020543    -0.19600
loop_ 
_geom_bond_atom_site_label_1 
_geom_bond_atom_site_label_2 
_geom_bond_distance 
_geom_bond_site_symmetry_2 
_ccdc_geom_bond_type 
N1            N2   1.322       .  A
N1            C5   1.345       .  A
N1           Cu9   2.069       .  S
N2            C3   1.342       .  A
N2           Cu8   2.063       .  S
C3            C4   1.380       .  A
C3            H6   1.082       .  S
C4            C5   1.383       .  A
C4         C2252   1.469       .  S
C5            H7   1.082       .  S
Cu8          N11   2.063       .  S
Cu9          N19   2.070       .  S
Cu10         N12   2.071       .  S
Cu10         N18   2.070       .  S
N11          N12   1.321       .  A
N11          C15   1.344       .  A
N12          C13   1.344       .  A
C13          C14   1.385       .  A
C13          H16   1.082       .  S
C14          C15   1.383       .  A
C14        C2272   1.476       .  S
C15          H17   1.082       .  S
N18          N19   1.322       .  A
N18          C22   1.344       .  A
N19          C20   1.343       .  A
C20          C21   1.385       .  A
C20          H23   1.081       .  S
C21          C22   1.385       .  A
C21        C2262   1.480       .  S
C22          H24   1.082       .  S
N25          N26   1.322       .  A
N25          C29   1.345       .  A
N25         Cu33   2.074       .  S
N26          C27   1.345       .  A
N26         Cu32   2.068       .  S
C27          C28   1.383       .  A
C27          H30   1.082       .  S
C28          C29   1.384       .  A
C28        C2222   1.474       .  S
C29          H31   1.082       .  S
Cu32         N35   2.069       .  S
Cu33         N43   2.073       .  S
Cu34         N36   2.067       .  S
Cu34         N42   2.068       .  S
N35          N36   1.322       .  A
N35          C39   1.343       .  A
N36          C37   1.344       .  A
C37          C38   1.383       .  A
C37          H40   1.082       .  S
C38          C39   1.384       .  A
C38        C2242   1.476       .  S
C39          H41   1.081       .  S
N42          N43   1.322       .  A
N42          C46   1.344       .  A
N43          C44   1.344       .  A
C44          C45   1.384       .  A
C44          H47   1.081       .  S
C45          C46   1.384       .  A
C45        C2235   1.477       .  S
C46          H48   1.082       .  S
N49          N50   1.321       .  A
N49          C53   1.342       .  A
N49         Cu57   2.063       .  S
N50          C51   1.346       .  A
N50         Cu56   2.070       .  S
C51          C52   1.385       .  A
C51          H54   1.082       .  S
C52          C53   1.384       .  A
C52        C2202   1.476       .  S
C53          H55   1.082       .  S
Cu56         N59   2.071       .  S
Cu57         N67   2.063       .  S
Cu58         N60   2.070       .  S
Cu58         N66   2.069       .  S
N59          N60   1.323       .  A
N59          C63   1.344       .  A
N60          C61   1.343       .  A
C61          C62   1.383       .  A
C61          H64   1.082       .  S
C62          C63   1.384       .  A
C62        C2192   1.477       .  S
C63          H65   1.081       .  S
N66          N67   1.321       .  A
N66          C70   1.345       .  A
N67          C68   1.341       .  A
C68          C69   1.383       .  A
C68          H71   1.082       .  S
C69          C70   1.385       .  A
C69        C2212   1.476       .  S
C70          H72   1.081       .  S
N73          N74   1.322       .  A
N73          C77   1.345       .  A
N73         Cu81   2.080       .  S
N74          C75   1.343       .  A
N74         Cu80   2.062       .  S
C75          C76   1.382       .  A
C75          H78   1.082       .  S
C76          C77   1.386       .  A
C76        C2182   1.477       .  S
C77          H79   1.082       .  S
Cu80         N83   2.062       .  S
Cu81         N91   2.079       .  S
Cu82         N84   2.064       .  S
Cu82         N90   2.065       .  S
N83          N84   1.320       .  A
N83          C87   1.343       .  A
N84          C85   1.343       .  A
C85          C86   1.384       .  A
C85          H88   1.082       .  S
C86          C87   1.384       .  A
C86        C2215   1.475       .  S
C87          H89   1.081       .  S
N90          N91   1.323       .  A
N90          C94   1.343       .  A
N91          C92   1.346       .  A
C92          C93   1.385       .  A
C92          H95   1.081       .  S
C93          C94   1.381       .  A
C93        C2265   1.476       .  S
C94          H96   1.082       .  S
N97          N98   1.323       .  A
N97         C101   1.344       .  A
N97        Cu105   2.070       .  S
N98          C99   1.346       .  A
N98        Cu104   2.080       .  S
C99         C100   1.385       .  A
C99         H102   1.082       .  S
C100        C101   1.383       .  A
C100       C2172   1.477       .  S
C101        H103   1.082       .  S
Cu104       N107   2.079       .  S
Cu105       N115   2.069       .  S
Cu106       N108   2.057       .  S
Cu106       N114   2.057       .  S
N107        N108   1.322       .  A
N107        C111   1.347       .  A
N108        C109   1.340       .  A
C109        C110   1.381       .  A
C109        H112   1.082       .  S
C110        C111   1.386       .  A
C110       C2205   1.476       .  S
C111        H113   1.082       .  S
N114        N115   1.320       .  A
N114        C118   1.343       .  A
N115        C116   1.344       .  A
C116        C117   1.384       .  A
C116        H119   1.082       .  S
C117        C118   1.383       .  A
C117       C2232   1.474       .  S
C118        H120   1.082       .  S
N121        N122   1.321       .  A
N121        C125   1.346       .  A
N121       Cu129   2.077       .  S
N122        C123   1.342       .  A
N122       Cu128   2.058       .  S
C123        C124   1.382       .  A
C123        H126   1.082       .  S
C124        C125   1.387       .  A
C124       C2275   1.476       .  S
C125        H127   1.081       .  S
Cu128       N131   2.058       .  S
Cu129       N139   2.078       .  S
Cu130       N132   2.078       .  S
Cu130       N138   2.079       .  S
N131        N132   1.321       .  A
N131        C135   1.342       .  A
N132        C133   1.346       .  A
C133        C134   1.385       .  A
C133        H136   1.082       .  S
C134        C135   1.380       .  A
C134       C2245   1.472       .  S
C135        H137   1.082       .  S
N138        N139   1.323       .  A
N138        C142   1.344       .  A
N139        C140   1.346       .  A
C140        C141   1.385       .  A
C140        H143   1.082       .  S
C141        C142   1.385       .  A
C141       C2162   1.480       .  S
C142        H144   1.082       .  S
N145        N146   1.322       .  A
N145        C149   1.349       .  A
N145       Cu153   2.093       .  S
N146        C147   1.344       .  A
N146       Cu152   2.064       .  S
C147        C148   1.383       .  A
C147        H150   1.082       .  S
C148        C149   1.388       .  A
C148       C2142   1.481       .  S
C149        H151   1.082       .  S
Cu152       N155   2.064       .  S
Cu153       N163   2.094       .  S
Cu154       N156   2.078       .  S
Cu154       N162   2.079       .  S
N155        N156   1.322       .  A
N155        C159   1.343       .  A
N156        C157   1.346       .  A
C157        C158   1.384       .  A
C157        H160   1.082       .  S
C158        C159   1.379       .  A
C158       C2132   1.471       .  S
C159        H161   1.082       .  S
N162        N163   1.324       .  A
N162        C166   1.348       .  A
N163        C164   1.347       .  A
C164        C165   1.387       .  A
C164        H167   1.082       .  S
C165        C166   1.385       .  A
C165       C2152   1.484       .  S
C166        H168   1.082       .  S
N169        N170   1.322       .  A
N169        C173   1.345       .  A
N169       Cu177   2.072       .  S
N170        C171   1.343       .  A
N170       Cu176   2.070       .  S
C171        C172   1.383       .  A
C171        H174   1.082       .  S
C172        C173   1.383       .  A
C172       C2105   1.474       .  S
C173        H175   1.082       .  S
Cu176       N179   2.071       .  S
Cu177       N187   2.072       .  S
Cu178       N180   2.078       .  S
Cu178       N186   2.079       .  S
N179        N180   1.321       .  A
N179        C183   1.346       .  A
N180        C181   1.344       .  A
C181        C182   1.387       .  A
C181        H184   1.081       .  S
C182        C183   1.386       .  A
C182       C2125   1.482       .  S
C183        H185   1.082       .  S
N186        N187   1.322       .  A
N186        C190   1.345       .  A
N187        C188   1.345       .  A
C188        C189   1.384       .  A
C188        H191   1.082       .  S
C189        C190   1.386       .  A
C189       C2112   1.480       .  S
C190        H192   1.082       .  S
N193        N194   1.325       .  A
N193        C197   1.343       .  A
N193       Cu201   2.073       .  S
N194        C195   1.347       .  A
N194       Cu200   2.084       .  S
C195        C196   1.384       .  A
C195        H198   1.082       .  S
C196        C197   1.380       .  A
C196       C2072   1.473       .  S
C197        H199   1.082       .  S
Cu200       N203   2.083       .  S
Cu201       N211   2.073       .  S
Cu202       N204   2.064       .  S
Cu202       N210   2.064       .  S
N203        N204   1.321       .  A
N203        C207   1.348       .  A
N204        C205   1.341       .  A
C205        C206   1.383       .  A
C205        H208   1.082       .  S
C206        C207   1.389       .  A
C206       C2092   1.481       .  S
C207        H209   1.082       .  S
N210        N211   1.320       .  A
N210        C214   1.342       .  A
N211        C212   1.347       .  A
C212        C213   1.385       .  A
C212        H215   1.082       .  S
C213        C214   1.382       .  A
C213       C2082   1.475       .  S
C214        H216   1.082       .  S
N217        N218   1.323       .  A
N217        C221   1.345       .  A
N217       Cu225   2.079       .  S
N218        C219   1.349       .  A
N218       Cu224   2.095       .  S
C219        C220   1.390       .  A
C219        H222   1.082       .  S
C220        C221   1.385       .  A
C220       C2062   1.488       .  S
C221        H223   1.081       .  S
Cu224       N227   2.094       .  S
Cu225       N235   2.078       .  S
Cu226       N228   2.073       .  S
Cu226       N234   2.072       .  S
N227        N228   1.323       .  A
N227        C231   1.350       .  A
N228        C229   1.343       .  A
C229        C230   1.384       .  A
C229        H232   1.082       .  S
C230        C231   1.390       .  A
C230       C2145   1.485       .  S
C231        H233   1.082       .  S
N234        N235   1.321       .  A
N234        C238   1.344       .  A
N235        C236   1.346       .  A
C236        C237   1.387       .  A
C236        H239   1.082       .  S
C237        C238   1.386       .  A
C237       C2085   1.482       .  S
C238        H240   1.082       .  S
N241        N242   1.322       .  A
N241        C245   1.346       .  A
N241       Cu249   2.074       .  S
N242        C243   1.342       .  A
N242       Cu248   2.071       .  S
C243        C244   1.385       .  A
C243        H246   1.081       .  S
C244        C245   1.387       .  A
C244       C2095   1.482       .  S
C245        H247   1.082       .  S
Cu248       N251   2.071       .  S
Cu249       N259   2.074       .  S
Cu250       N252   2.070       .  S
Cu250       N258   2.071       .  S
N251        N252   1.320       .  A
N251        C255   1.343       .  A
N252        C253   1.347       .  A
C253        C254   1.387       .  A
C253        H256   1.081       .  S
C254        C255   1.386       .  A
C254       C2122   1.482       .  S
C255        H257   1.082       .  S
N258        N259   1.323       .  A
N258        C262   1.342       .  A
N259        C260   1.346       .  A
C260        C261   1.385       .  A
C260        H263   1.082       .  S
C261        C262   1.383       .  A
C261       C2052   1.478       .  S
C262        H264   1.082       .  S
N265        N266   1.324       .  A
N265        C269   1.342       .  A
N265       Cu273   2.066       .  S
N266        C267   1.349       .  A
N266       Cu272   2.091       .  S
C267        C268   1.387       .  A
C267        H270   1.082       .  S
C268        C269   1.380       .  A
C268       C2042   1.477       .  S
C269        H271   1.082       .  S
Cu272       N275   2.091       .  S
Cu273       N283   2.066       .  S
Cu274       N276   2.081       .  S
Cu274       N282   2.080       .  S
N275        N276   1.323       .  A
N275        C279   1.350       .  A
N276        C277   1.344       .  A
C277        C278   1.384       .  A
C277        H280   1.082       .  S
C278        C279   1.388       .  A
C278       C2155   1.484       .  S
C279        H281   1.082       .  S
N282        N283   1.320       .  A
N282        C286   1.346       .  A
N283        C284   1.345       .  A
C284        C285   1.385       .  A
C284        H287   1.082       .  S
C285        C286   1.387       .  A
C285       C2115   1.480       .  S
C286        H288   1.082       .  S
N289        N290   1.325       .  A
N289        C293   1.345       .  A
N289       Cu297   2.078       .  S
N290        C291   1.346       .  A
N290       Cu296   2.087       .  S
C291        C292   1.384       .  A
C291        H294   1.082       .  S
C292        C293   1.382       .  A
C292       C2012   1.476       .  S
C293        H295   1.082       .  S
Cu296       N299   2.087       .  S
Cu297       N307   2.077       .  S
Cu298       N300   2.065       .  S
Cu298       N306   2.065       .  S
N299        N300   1.321       .  A
N299        C303   1.348       .  A
N300        C301   1.344       .  A
C301        C302   1.383       .  A
C301        H304   1.082       .  S
C302        C303   1.390       .  A
C302       C2022   1.483       .  S
C303        H305   1.082       .  S
N306        N307   1.321       .  A
N306        C310   1.341       .  A
N307        C308   1.348       .  A
C308        C309   1.387       .  A
C308        H311   1.082       .  S
C309        C310   1.382       .  A
C309       C2032   1.478       .  S
C310        H312   1.082       .  S
N313        N314   1.321       .  A
N313        C317   1.342       .  A
N313       Cu321   2.059       .  S
N314        C315   1.348       .  A
N314       Cu320   2.079       .  S
C315        C316   1.386       .  A
C315        H318   1.082       .  S
C316        C317   1.380       .  A
C316       C2002   1.474       .  S
C317        H319   1.082       .  S
Cu320       N323   2.080       .  S
Cu321       N331   2.059       .  S
Cu322       N324   2.082       .  S
Cu322       N330   2.081       .  S
N323        N324   1.325       .  A
N323        C327   1.343       .  A
N324        C325   1.348       .  A
C325        C326   1.385       .  A
C325        H328   1.082       .  S
C326        C327   1.382       .  A
C326       C1985   1.478       .  S
C327        H329   1.082       .  S
N330        N331   1.321       .  A
N330        C334   1.347       .  A
N331        C332   1.341       .  A
C332        C333   1.383       .  A
C332        H335   1.082       .  S
C333        C334   1.389       .  A
C333       C1995   1.481       .  S
C334        H336   1.081       .  S
N337        N338   1.321       .  A
N337        C341   1.350       .  A
N337       Cu345   2.091       .  S
N338        C339   1.341       .  A
N338       Cu344   2.063       .  S
C339        C340   1.383       .  A
C339        H342   1.081       .  S
C340        C341   1.391       .  A
C340       C1962   1.485       .  S
C341        H343   1.082       .  S
Cu344       N347   2.063       .  S
Cu345       N355   2.092       .  S
Cu346       N348   2.069       .  S
Cu346       N354   2.071       .  S
N347        N348   1.321       .  A
N347        C351   1.342       .  A
N348        C349   1.346       .  A
C349        C350   1.384       .  A
C349        H352   1.082       .  S
C350        C351   1.382       .  A
C350       C1972   1.472       .  S
C351        H353   1.082       .  S
N354        N355   1.324       .  A
N354        C358   1.343       .  A
N355        C356   1.348       .  A
C356        C357   1.385       .  A
C356        H359   1.082       .  S
C357        C358   1.382       .  A
C357       C1955   1.477       .  S
C358        H360   1.082       .  S
N361        N362   1.323       .  A
N361        C365   1.343       .  A
N361       Cu369   2.068       .  S
N362        C363   1.347       .  A
N362       Cu368   2.086       .  S
C363        C364   1.387       .  A
C363        H366   1.082       .  S
C364        C365   1.382       .  A
C364       C1942   1.480       .  S
C365        H367   1.082       .  S
Cu368       N371   2.086       .  S
Cu369       N379   2.067       .  S
Cu370       N372   2.084       .  S
Cu370       N378   2.084       .  S
N371        N372   1.323       .  A
N371        C375   1.349       .  A
N372        C373   1.345       .  A
C373        C374   1.385       .  A
C373        H376   1.082       .  S
C374        C375   1.387       .  A
C374       C2025   1.483       .  S
C375        H377   1.082       .  S
N378        N379   1.321       .  A
N378        C382   1.346       .  A
N379        C380   1.346       .  A
C380        C381   1.385       .  A
C380        H383   1.082       .  S
C381        C382   1.390       .  A
C381       C1965   1.486       .  S
C382        H384   1.081       .  S
N385        N386   1.323       .  A
N385        C389   1.346       .  A
N385       Cu393   2.078       .  S
N386        C387   1.345       .  A
N386       Cu392   2.078       .  S
C387        C388   1.383       .  A
C387        H390   1.082       .  S
C388        C389   1.383       .  A
C388       C1935   1.475       .  S
C389        H391   1.082       .  S
Cu392       N395   2.078       .  S
Cu393       N403   2.077       .  S
Cu394       N396   2.066       .  S
Cu394       N402   2.066       .  S
N395        N396   1.321       .  A
N395        C399   1.346       .  A
N396        C397   1.343       .  A
C397        C398   1.385       .  A
C397        H400   1.082       .  S
C398        C399   1.387       .  A
C398       C2005   1.482       .  S
C399        H401   1.081       .  S
N402        N403   1.321       .  A
N402        C406   1.343       .  A
N403        C404   1.346       .  A
C404        C405   1.387       .  A
C404        H407   1.082       .  S
C405        C406   1.384       .  A
C405       C1975   1.479       .  S
C406        H408   1.082       .  S
N409        N410   1.322       .  A
N409        C413   1.344       .  A
N409       Cu417   2.069       .  S
N410        C411   1.344       .  A
N410       Cu416   2.069       .  S
C411        C412   1.383       .  A
C411        H414   1.082       .  S
C412        C413   1.382       .  A
C412       C1992   1.473       .  S
C413        H415   1.082       .  S
Cu416       N419   2.070       .  S
Cu417       N427   2.070       .  S
Cu418       N420   2.086       .  S
Cu418       N426   2.086       .  S
N419        N420   1.322       .  A
N419        C423   1.344       .  A
N420        C421   1.347       .  A
C421        C422   1.387       .  A
C421        H424   1.082       .  S
C422        C423   1.383       .  A
C422       C1922   1.480       .  S
C423        H425   1.082       .  S
N426        N427   1.322       .  A
N426        C430   1.346       .  A
N427        C428   1.344       .  A
C428        C429   1.384       .  A
C428        H431   1.082       .  S
C429        C430   1.389       .  A
C429       C2035   1.484       .  S
C430        H432   1.081       .  S
N433        N434   1.323       .  A
N433        C437   1.342       .  A
N433       Cu441   2.070       .  S
N434        C435   1.346       .  A
N434       Cu440   2.079       .  S
C435        C436   1.385       .  A
C435        H438   1.082       .  S
C436        C437   1.381       .  A
C436       C1892   1.475       .  S
C437        H439   1.082       .  S
Cu440       N443   2.079       .  S
Cu441       N451   2.069       .  S
Cu442       N444   2.068       .  S
Cu442       N450   2.068       .  S
N443        N444   1.322       .  A
N443        C447   1.347       .  A
N444        C445   1.341       .  A
C445        C446   1.383       .  A
C445        H448   1.082       .  S
C446        C447   1.388       .  A
C446       C1902   1.481       .  S
C447        H449   1.081       .  S
N450        N451   1.320       .  A
N450        C454   1.343       .  A
N451        C452   1.346       .  A
C452        C453   1.386       .  A
C452        H455   1.082       .  S
C453        C454   1.386       .  A
C453       C1912   1.479       .  S
C454        H456   1.082       .  S
N457        N458   1.324       .  A
N457        C461   1.345       .  A
N457       Cu465   2.080       .  S
N458        C459   1.347       .  A
N458       Cu464   2.084       .  S
C459        C460   1.385       .  A
C459        H462   1.082       .  S
C460        C461   1.383       .  A
C460       C1862   1.479       .  S
C461        H463   1.082       .  S
Cu464       N467   2.083       .  S
Cu465       N475   2.080       .  S
Cu466       N468   2.064       .  S
Cu466       N474   2.064       .  S
N467        N468   1.321       .  A
N467        C471   1.348       .  A
N468        C469   1.342       .  A
C469        C470   1.384       .  A
C469        H472   1.081       .  S
C470        C471   1.390       .  A
C470       C1882   1.484       .  S
C471        H473   1.082       .  S
N474        N475   1.320       .  A
N474        C478   1.344       .  A
N475        C476   1.346       .  A
C476        C477   1.388       .  A
C476        H479   1.082       .  S
C477        C478   1.384       .  A
C477       C1872   1.482       .  S
C478        H480   1.082       .  S
N481        N482   1.320       .  A
N481        C485   1.344       .  A
N481       Cu489   2.067       .  S
N482        C483   1.345       .  A
N482       Cu488   2.071       .  S
C483        C484   1.387       .  A
C483        H486   1.081       .  S
C484        C485   1.383       .  A
C484       C1852   1.479       .  S
C485        H487   1.082       .  S
Cu488       N491   2.071       .  S
Cu489       N499   2.068       .  S
Cu490       N492   2.090       .  S
Cu490       N498   2.090       .  S
N491        N492   1.324       .  A
N491        C495   1.343       .  A
N492        C493   1.348       .  A
C493        C494   1.385       .  A
C493        H496   1.082       .  S
C494        C495   1.381       .  A
C494       C1842   1.477       .  S
C495        H497   1.082       .  S
N498        N499   1.322       .  A
N498        C502   1.349       .  A
N499        C500   1.343       .  A
C500        C501   1.382       .  A
C500        H503   1.082       .  S
C501        C502   1.388       .  A
C501       C1832   1.480       .  S
C502        H504   1.082       .  S
N505        N506   1.321       .  A
N505        C509   1.343       .  A
N505       Cu513   2.068       .  S
N506        C507   1.346       .  A
N506       Cu512   2.073       .  S
C507        C508   1.385       .  A
C507        H510   1.082       .  S
C508        C509   1.383       .  A
C508       C1822   1.476       .  S
C509        H511   1.082       .  S
Cu512       N515   2.074       .  S
Cu513       N523   2.068       .  S
Cu514       N516   2.077       .  S
Cu514       N522   2.077       .  S
N515        N516   1.323       .  A
N515        C519   1.345       .  A
N516        C517   1.344       .  A
C517        C518   1.383       .  A
C517        H520   1.082       .  S
C518        C519   1.384       .  A
C518       C1905   1.476       .  S
C519        H521   1.082       .  S
N522        N523   1.321       .  A
N522        C526   1.347       .  A
N523        C524   1.342       .  A
C524        C525   1.384       .  A
C524        H527   1.082       .  S
C525        C526   1.387       .  A
C525       C1855   1.480       .  S
C526        H528   1.082       .  S
N529        N530   1.323       .  A
N529        C533   1.349       .  A
N529       Cu537   2.088       .  S
N530        C531   1.342       .  A
N530       Cu536   2.073       .  S
C531        C532   1.383       .  A
C531        H534   1.082       .  S
C532        C533   1.387       .  A
C532       C1845   1.481       .  S
C533        H535   1.082       .  S
Cu536       N539   2.072       .  S
Cu537       N547   2.088       .  S
Cu538       N540   2.071       .  S
Cu538       N546   2.071       .  S
N539        N540   1.321       .  A
N539        C543   1.346       .  A
N540        C541   1.345       .  A
C541        C542   1.383       .  A
C541        H544   1.082       .  S
C542        C543   1.384       .  A
C542       C1885   1.475       .  S
C543        H545   1.082       .  S
N546        N547   1.323       .  A
N546        C550   1.343       .  A
N547        C548   1.349       .  A
C548        C549   1.387       .  A
C548        H551   1.082       .  S
C549        C550   1.382       .  A
C549       C1812   1.480       .  S
C550        H552   1.082       .  S
N553        N554   1.321       .  A
N553        C557   1.342       .  A
N553       Cu561   2.070       .  S
N554        C555   1.347       .  A
N554       Cu560   2.072       .  S
C555        C556   1.385       .  A
C555        H558   1.082       .  S
C556        C557   1.384       .  A
C556       C1915   1.478       .  S
C557        H559   1.082       .  S
Cu560       N563   2.073       .  S
Cu561       N571   2.070       .  S
Cu562       N564   2.072       .  S
Cu562       N570   2.071       .  S
N563        N564   1.324       .  A
N563        C567   1.344       .  A
N564        C565   1.344       .  A
C565        C566   1.380       .  A
C565        H568   1.082       .  S
C566        C567   1.380       .  A
C566       C1802   1.467       .  S
C567        H569   1.082       .  S
N570        N571   1.321       .  A
N570        C574   1.347       .  A
N571        C572   1.343       .  A
C572        C573   1.383       .  A
C572        H575   1.082       .  S
C573        C574   1.385       .  A
C573       C1875   1.476       .  S
C574        H576   1.082       .  S
N577        N578   1.321       .  A
N577        C581   1.345       .  A
N577       Cu585   2.076       .  S
N578        C579   1.342       .  A
N578       Cu584   2.057       .  S
C579        C580   1.382       .  A
C579        H582   1.082       .  S
C580        C581   1.384       .  A
C580       C1782   1.473       .  S
C581        H583   1.082       .  S
Cu584       N587   2.057       .  S
Cu585       N595   2.077       .  S
Cu586       N588   2.076       .  S
Cu586       N594   2.076       .  S
N587        N588   1.322       .  A
N587        C591   1.340       .  A
N588        C589   1.346       .  A
C589        C590   1.386       .  A
C589        H592   1.082       .  S
C590        C591   1.382       .  A
C590       C1792   1.477       .  S
C591        H593   1.082       .  S
N594        N595   1.323       .  A
N594        C598   1.345       .  A
N595        C596   1.346       .  A
C596        C597   1.384       .  A
C596        H599   1.082       .  S
C597        C598   1.384       .  A
C597       C1775   1.477       .  S
C598        H600   1.082       .  S
N601        N602   1.321       .  A
N601        C605   1.340       .  A
N601       Cu609   2.053       .  S
N602        C603   1.344       .  A
N602       Cu608   2.065       .  S
C603        C604   1.382       .  A
C603        H606   1.082       .  S
C604        C605   1.380       .  A
C604       C1765   1.467       .  S
C605        H607   1.082       .  S
Cu608       N611   2.067       .  S
Cu609       N619   2.054       .  S
Cu610       N612   2.082       .  S
Cu610       N618   2.082       .  S
N611        N612   1.323       .  A
N611        C615   1.343       .  A
N612        C613   1.346       .  A
C613        C614   1.384       .  A
C613        H616   1.082       .  S
C614        C615   1.382       .  A
C614       C1745   1.475       .  S
C615        H617   1.082       .  S
N618        N619   1.321       .  A
N618        C622   1.347       .  A
N619        C620   1.341       .  A
C620        C621   1.381       .  A
C620        H623   1.082       .  S
C621        C622   1.387       .  A
C621       C1752   1.477       .  S
C622        H624   1.082       .  S
N625        N626   1.322       .  A
N625        C629   1.343       .  A
N625       Cu633   2.070       .  S
N626        C627   1.343       .  A
N626       Cu632   2.072       .  S
C627        C628   1.385       .  A
C627        H630   1.081       .  S
C628        C629   1.385       .  A
C628       C1722   1.479       .  S
C629        H631   1.082       .  S
Cu632       N635   2.073       .  S
Cu633       N643   2.069       .  S
Cu634       N636   2.067       .  S
Cu634       N642   2.066       .  S
N635        N636   1.321       .  A
N635        C639   1.346       .  A
N636        C637   1.342       .  A
C637        C638   1.385       .  A
C637        H640   1.082       .  S
C638        C639   1.386       .  A
C638       C1732   1.481       .  S
C639        H641   1.082       .  S
N642        N643   1.321       .  A
N642        C646   1.342       .  A
N643        C644   1.345       .  A
C644        C645   1.385       .  A
C644        H647   1.082       .  S
C645        C646   1.384       .  A
C645       C1712   1.478       .  S
C646        H648   1.081       .  S
N649        N650   1.323       .  A
N649        C653   1.347       .  A
N649       Cu657   2.070       .  S
N650        C651   1.344       .  A
N650       Cu656   2.084       .  S
C651        C652   1.385       .  A
C651        H654   1.082       .  S
C652        C653   1.384       .  A
C652       C1705   1.478       .  S
C653        H655   1.082       .  S
Cu656       N659   2.084       .  S
Cu657       N667   2.069       .  S
Cu658       N660   2.068       .  S
Cu658       N666   2.068       .  S
N659        N660   1.322       .  A
N659        C663   1.349       .  A
N660        C661   1.341       .  A
C661        C662   1.383       .  A
C661        H664   1.082       .  S
C662        C663   1.388       .  A
C662       C1735   1.481       .  S
C663        H665   1.082       .  S
N666        N667   1.321       .  A
N666        C670   1.344       .  A
N667        C668   1.343       .  A
C668        C669   1.385       .  A
C668        H671   1.081       .  S
C669        C670   1.385       .  A
C669       C1785   1.479       .  S
C670        H672   1.082       .  S
N673        N674   1.319       .  A
N673        C677   1.346       .  A
N673       Cu681   2.071       .  S
N674        C675   1.340       .  A
N674       Cu680   2.053       .  S
C675        C676   1.382       .  A
C675        H678   1.082       .  S
C676        C677   1.388       .  A
C676       C1725   1.479       .  S
C677        H679   1.081       .  S
Cu680       N683   2.053       .  S
Cu681       N691   2.072       .  S
Cu682       N684   2.082       .  S
Cu682       N690   2.083       .  S
N683        N684   1.322       .  A
N683        C687   1.342       .  A
N684        C685   1.346       .  A
C685        C686   1.386       .  A
C685        H688   1.082       .  S
C686        C687   1.379       .  A
C686       C1695   1.472       .  S
C687        H689   1.082       .  S
N690        N691   1.323       .  A
N690        C694   1.347       .  A
N691        C692   1.343       .  A
C692        C693   1.383       .  A
C692        H695   1.081       .  S
C693        C694   1.386       .  A
C693       C1755   1.479       .  S
C694        H696   1.082       .  S
N697        N698   1.321       .  A
N697        C701   1.345       .  A
N697       Cu705   2.074       .  S
N698        C699   1.341       .  A
N698       Cu704   2.054       .  S
C699        C700   1.382       .  A
C699        H702   1.082       .  S
C700        C701   1.385       .  A
C700       C1795   1.475       .  S
C701        H703   1.082       .  S
Cu704       N707   2.054       .  S
Cu705       N715   2.075       .  S
Cu706       N708   2.066       .  S
Cu706       N714   2.067       .  S
N707        N708   1.321       .  A
N707        C711   1.341       .  A
N708        C709   1.344       .  A
C709        C710   1.383       .  A
C709        H712   1.082       .  S
C710        C711   1.381       .  A
C710       C1762   1.470       .  S
C711        H713   1.082       .  S
N714        N715   1.323       .  A
N714        C718   1.344       .  A
N715        C716   1.344       .  A
C716        C717   1.383       .  A
C716        H719   1.082       .  S
C717        C718   1.382       .  A
C717       C1682   1.474       .  S
C718        H720   1.082       .  S
N721        N722   1.324       .  A
N721        C725   1.348       .  A
N721       Cu729   2.089       .  S
N722        C723   1.340       .  A
N722       Cu728   2.068       .  S
C723        C724   1.380       .  A
C723        H726   1.082       .  S
C724        C725   1.389       .  A
C724       C1655   1.480       .  S
C725        H727   1.081       .  S
Cu728       N731   2.068       .  S
Cu729       N739   2.088       .  S
Cu730       N732   2.058       .  S
Cu730       N738   2.058       .  S
N731        N732   1.318       .  A
N731        C735   1.346       .  A
N732        C733   1.341       .  A
C733        C734   1.385       .  A
C733        H736   1.081       .  S
C734        C735   1.389       .  A
C734       C1672   1.481       .  S
C735        H737   1.082       .  S
N738        N739   1.322       .  A
N738        C742   1.340       .  A
N739        C740   1.349       .  A
C740        C741   1.389       .  A
C740        H743   1.082       .  S
C741        C742   1.380       .  A
C741       C1662   1.479       .  S
C742        H744   1.082       .  S
N745        N746   1.322       .  A
N745        C749   1.345       .  A
N745       Cu753   2.075       .  S
N746        C747   1.346       .  A
N746       Cu752   2.077       .  S
C747        C748   1.385       .  A
C747        H750   1.082       .  S
C748        C749   1.384       .  A
C748       C1622   1.478       .  S
C749        H751   1.082       .  S
Cu752       N755   2.077       .  S
Cu753       N763   2.075       .  S
Cu754       N756   2.070       .  S
Cu754       N762   2.069       .  S
N755        N756   1.323       .  A
N755        C759   1.346       .  A
N756        C757   1.343       .  A
C757        C758   1.383       .  A
C757        H760   1.082       .  S
C758        C759   1.385       .  A
C758       C1642   1.478       .  S
C759        H761   1.081       .  S
N762        N763   1.321       .  A
N762        C766   1.345       .  A
N763        C764   1.344       .  A
C764        C765   1.385       .  A
C764        H767   1.082       .  S
C765        C766   1.385       .  A
C765       C1632   1.478       .  S
C766        H768   1.082       .  S
N769        N770   1.323       .  A
N769        C773   1.346       .  A
N769       Cu777   2.074       .  S
N770        C771   1.345       .  A
N770       Cu776   2.078       .  S
C771        C772   1.383       .  A
C771        H774   1.082       .  S
C772        C773   1.383       .  A
C772       C1595   1.475       .  S
C773        H775   1.082       .  S
Cu776       N779   2.078       .  S
Cu777       N787   2.074       .  S
Cu778       N780   2.073       .  S
Cu778       N786   2.073       .  S
N779        N780   1.321       .  A
N779        C783   1.346       .  A
N780        C781   1.344       .  A
C781        C782   1.387       .  A
C781        H784   1.081       .  S
C782        C783   1.387       .  A
C782       C1612   1.485       .  S
C783        H785   1.082       .  S
N786        N787   1.322       .  A
N786        C790   1.344       .  A
N787        C788   1.346       .  A
C788        C789   1.386       .  A
C788        H791   1.081       .  S
C789        C790   1.383       .  A
C789       C1602   1.479       .  S
C790        H792   1.082       .  S
N793        N794   1.323       .  A
N793        C797   1.349       .  A
N793       Cu801   2.088       .  S
N794        C795   1.343       .  A
N794       Cu800   2.064       .  S
C795        C796   1.379       .  A
C795        H798   1.082       .  S
C796        C797   1.386       .  A
C796       C1615   1.473       .  S
C797        H799   1.082       .  S
Cu800       N803   2.064       .  S
Cu801       N811   2.089       .  S
Cu802       N804   2.091       .  S
Cu802       N810   2.092       .  S
N803        N804   1.322       .  A
N803        C807   1.344       .  A
N804        C805   1.348       .  A
C805        C806   1.386       .  A
C805        H808   1.082       .  S
C806        C807   1.381       .  A
C806       C1675   1.474       .  S
C807        H809   1.082       .  S
N810        N811   1.324       .  A
N810        C814   1.350       .  A
N811        C812   1.346       .  A
C812        C813   1.386       .  A
C812        H815   1.082       .  S
C813        C814   1.388       .  A
C813       C1582   1.486       .  S
C814        H816   1.082       .  S
N817        N818   1.322       .  A
N817        C821   1.347       .  A
N817       Cu825   2.077       .  S
N818        C819   1.343       .  A
N818       Cu824   2.073       .  S
C819        C820   1.383       .  A
C819        H822   1.082       .  S
C820        C821   1.386       .  A
C820       C1605   1.479       .  S
C821        H823   1.082       .  S
Cu824       N827   2.072       .  S
Cu825       N835   2.077       .  S
Cu826       N828   2.068       .  S
Cu826       N834   2.068       .  S
N827        N828   1.321       .  A
N827        C831   1.344       .  A
N828        C829   1.345       .  A
C829        C830   1.385       .  A
C829        H832   1.082       .  S
C830        C831   1.384       .  A
C830       C1645   1.476       .  S
C831        H833   1.082       .  S
N834        N835   1.323       .  A
N834        C838   1.344       .  A
N835        C836   1.344       .  A
C836        C837   1.384       .  A
C836        H839   1.082       .  S
C837        C838   1.383       .  A
C837       C1572   1.476       .  S
C838        H840   1.082       .  S
N841        N842   1.321       .  A
N841        C845   1.342       .  A
N841       Cu849   2.062       .  S
N842        C843   1.347       .  A
N842       Cu848   2.080       .  S
C843        C844   1.387       .  A
C843        H846   1.082       .  S
C844        C845   1.382       .  A
C844       C1665   1.478       .  S
C845        H847   1.082       .  S
Cu848       N851   2.081       .  S
Cu849       N859   2.061       .  S
Cu850       N852   2.070       .  S
Cu850       N858   2.070       .  S
N851        N852   1.324       .  A
N851        C855   1.346       .  A
N852        C853   1.342       .  A
C853        C854   1.383       .  A
C853        H856   1.082       .  S
C854        C855   1.385       .  A
C854       C1562   1.478       .  S
C855        H857   1.082       .  S
N858        N859   1.320       .  A
N858        C862   1.346       .  A
N859        C860   1.341       .  A
C860        C861   1.384       .  A
C860        H863   1.081       .  S
C861        C862   1.387       .  A
C861       C1635   1.479       .  S
C862        H864   1.082       .  S
N865        N866   1.322       .  A
N865        C869   1.343       .  A
N865       Cu873   2.064       .  S
N866        C867   1.347       .  A
N866       Cu872   2.084       .  S
C867        C868   1.388       .  A
C867        H870   1.082       .  S
C868        C869   1.383       .  A
C868       C1552   1.481       .  S
C869        H871   1.082       .  S
Cu872       N875   2.084       .  S
Cu873       N883   2.065       .  S
Cu874       N876   2.071       .  S
Cu874       N882   2.070       .  S
N875        N876   1.323       .  A
N875        C879   1.345       .  A
N876        C877   1.345       .  A
C877        C878   1.384       .  A
C877        H880   1.082       .  S
C878        C879   1.385       .  A
C878       C1532   1.479       .  S
C879        H881   1.082       .  S
N882        N883   1.321       .  A
N882        C886   1.345       .  A
N883        C884   1.342       .  A
C884        C885   1.385       .  A
C884        H887   1.082       .  S
C885        C886   1.386       .  A
C885       C1542   1.479       .  S
C886        H888   1.081       .  S
N889        N890   1.323       .  A
N889        C893   1.343       .  A
N889       Cu897   2.068       .  S
N890        C891   1.347       .  A
N890       Cu896   2.080       .  S
C891        C892   1.386       .  A
C891        H894   1.082       .  S
C892        C893   1.381       .  A
C892       C1502   1.476       .  S
C893        H895   1.082       .  S
Cu896       N899   2.081       .  S
Cu897       N907   2.068       .  S
Cu898       N900   2.078       .  S
Cu898       N906   2.078       .  S
N899        N900   1.323       .  A
N899        C903   1.347       .  A
N900        C901   1.344       .  A
C901        C902   1.385       .  A
C901        H904   1.081       .  S
C902        C903   1.386       .  A
C902       C1522   1.482       .  S
C903        H905   1.082       .  S
N906        N907   1.321       .  A
N906        C910   1.345       .  A
N907        C908   1.346       .  A
C908        C909   1.383       .  A
C908        H911   1.082       .  S
C909        C910   1.386       .  A
C909       C1515   1.478       .  S
C910        H912   1.082       .  S
N913        N914   1.320       .  A
N913        C917   1.345       .  A
N913       Cu921   2.066       .  S
N914        C915   1.347       .  A
N914       Cu920   2.088       .  S
C915        C916   1.391       .  A
C915        H918   1.082       .  S
C916        C917   1.387       .  A
C916       C1472   1.489       .  S
C917        H919   1.081       .  S
Cu920       N923   2.089       .  S
Cu921       N931   2.066       .  S
Cu922       N924   2.086       .  S
Cu922       N930   2.086       .  S
N923        N924   1.324       .  A
N923        C927   1.345       .  A
N924        C925   1.348       .  A
C925        C926   1.387       .  A
C925        H928   1.082       .  S
C926        C927   1.387       .  A
C926       C1482   1.487       .  S
C927        H929   1.082       .  S
N930        N931   1.322       .  A
N930        C934   1.349       .  A
N931        C932   1.340       .  A
C932        C933   1.382       .  A
C932        H935   1.082       .  S
C933        C934   1.388       .  A
C933       C1495   1.480       .  S
C934        H936   1.082       .  S
N937        N938   1.323       .  A
N937        C941   1.347       .  A
N937       Cu945   2.082       .  S
N938        C939   1.343       .  A
N938       Cu944   2.068       .  S
C939        C940   1.380       .  A
C939        H942   1.082       .  S
C940        C941   1.384       .  A
C940       C1462   1.473       .  S
C941        H943   1.082       .  S
Cu944       N947   2.067       .  S
Cu945       N955   2.082       .  S
Cu946       N948   2.072       .  S
Cu946       N954   2.072       .  S
N947        N948   1.320       .  A
N947        C951   1.344       .  A
N948        C949   1.345       .  A
C949        C950   1.387       .  A
C949        H952   1.081       .  S
C950        C951   1.385       .  A
C950       C1555   1.481       .  S
C951        H953   1.082       .  S
N954        N955   1.323       .  A
N954        C958   1.342       .  A
N955        C956   1.348       .  A
C956        C957   1.385       .  A
C956        H959   1.082       .  S
C957        C958   1.382       .  A
C957       C1492   1.477       .  S
C958        H960   1.082       .  S
N961        N962   1.323       .  A
N961        C965   1.348       .  A
N961       Cu969   2.083       .  S
N962        C963   1.344       .  A
N962       Cu968   2.076       .  S
C963        C964   1.384       .  A
C963        H966   1.082       .  S
C964        C965   1.387       .  A
C964       C1525   1.482       .  S
C965        H967   1.082       .  S
Cu968       N971   2.076       .  S
Cu969       N979   2.084       .  S
Cu970       N972   2.079       .  S
Cu970       N978   2.079       .  S
N971        N972   1.321       .  A
N971        C975   1.345       .  A
N972        C973   1.348       .  A
C973        C974   1.387       .  A
C973        H976   1.081       .  S
C974        C975   1.386       .  A
C974       C1485   1.484       .  S
C975        H977   1.082       .  S
N978        N979   1.323       .  A
N978        C982   1.345       .  A
N979        C980   1.347       .  A
C980        C981   1.386       .  A
C980        H983   1.082       .  S
C981        C982   1.384       .  A
C981       C1452   1.480       .  S
C982        H984   1.082       .  S
N985        N986   1.324       .  A
N985        C989   1.347       .  A
N985       Cu993   2.089       .  S
N986        C987   1.344       .  A
N986       Cu992   2.073       .  S
C987        C988   1.382       .  A
C987        H990   1.082       .  S
C988        C989   1.385       .  A
C988       C1442   1.479       .  S
C989        H991   1.082       .  S
Cu992       N995   2.071       .  S
Cu993      N1003   2.088       .  S
Cu994       N996   2.060       .  S
Cu994      N1002   2.060       .  S
N995        N996   1.321       .  A
N995        C999   1.346       .  A
N996        C997   1.341       .  A
C997        C998   1.381       .  A
C997       H1000   1.082       .  S
C998        C999   1.384       .  A
C998       C1545   1.473       .  S
C999       H1001   1.082       .  S
N1002      N1003   1.321       .  A
N1002      C1006   1.341       .  A
N1003      C1004   1.349       .  A
C1004      C1005   1.390       .  A
C1004      H1007   1.082       .  S
C1005      C1006   1.383       .  A
C1005      C1512   1.483       .  S
C1006      H1008   1.082       .  S
N1009      N1010   1.321       .  A
N1009      C1013   1.342       .  A
N1009     Cu1017   2.074       .  S
N1010      C1011   1.349       .  A
N1010     Cu1016   2.081       .  S
C1011      C1012   1.390       .  A
C1011      H1014   1.081       .  S
C1012      C1013   1.386       .  A
C1012      C1432   1.487       .  S
C1013      H1015   1.081       .  S
Cu1016     N1019   2.082       .  S
Cu1017     N1027   2.074       .  S
Cu1018     N1020   2.074       .  S
Cu1018     N1026   2.075       .  S
N1019      N1020   1.324       .  A
N1019      C1023   1.346       .  A
N1020      C1021   1.344       .  A
C1021      C1022   1.381       .  A
C1021      H1024   1.082       .  S
C1022      C1023   1.384       .  A
C1022      C1412   1.474       .  S
C1023      H1025   1.082       .  S
N1026      N1027   1.321       .  A
N1026      C1030   1.346       .  A
N1027      C1028   1.345       .  A
C1028      C1029   1.386       .  A
C1028      H1031   1.081       .  S
C1029      C1030   1.387       .  A
C1029      C1425   1.483       .  S
C1030      H1032   1.082       .  S
N1033      N1034   1.326       .  A
N1033      C1037   1.346       .  A
N1033     Cu1041   2.087       .  S
N1034      C1035   1.346       .  A
N1034     Cu1040   2.089       .  S
C1035      C1036   1.383       .  A
C1035      H1038   1.082       .  S
C1036      C1037   1.382       .  A
C1036      C1385   1.476       .  S
C1037      H1039   1.082       .  S
Cu1040     N1043   2.087       .  S
Cu1041     N1051   2.086       .  S
Cu1042     N1044   2.058       .  S
Cu1042     N1050   2.057       .  S
N1043      N1044   1.320       .  A
N1043      C1047   1.349       .  A
N1044      C1045   1.342       .  A
C1045      C1046   1.382       .  A
C1045      H1048   1.082       .  S
C1046      C1047   1.389       .  A
C1046      C1402   1.480       .  S
C1047      H1049   1.082       .  S
N1050      N1051   1.321       .  A
N1050      C1054   1.340       .  A
N1051      C1052   1.350       .  A
C1052      C1053   1.390       .  A
C1052      H1055   1.082       .  S
C1053      C1054   1.381       .  A
C1053      C1392   1.480       .  S
C1054      H1056   1.082       .  S
N1057      N1058   1.322       .  A
N1057      C1061   1.344       .  A
N1057     Cu1065   2.068       .  S
N1058      C1059   1.345       .  A
N1058     Cu1064   2.078       .  S
C1059      C1060   1.386       .  A
C1059      H1062   1.082       .  S
C1060      C1061   1.384       .  A
C1060      C1352   1.479       .  S
C1061      H1063   1.082       .  S
Cu1064     N1067   2.078       .  S
Cu1065     N1075   2.067       .  S
Cu1066     N1068   2.074       .  S
Cu1066     N1074   2.073       .  S
N1067      N1068   1.321       .  A
N1067      C1071   1.346       .  A
N1068      C1069   1.345       .  A
C1069      C1070   1.388       .  A
C1069      H1072   1.081       .  S
C1070      C1071   1.388       .  A
C1070      C1362   1.488       .  S
C1071      H1073   1.081       .  S
N1074      N1075   1.322       .  A
N1074      C1078   1.344       .  A
N1075      C1076   1.344       .  A
C1076      C1077   1.384       .  A
C1076      H1079   1.082       .  S
C1077      C1078   1.384       .  A
C1077      C1375   1.476       .  S
C1078      H1080   1.082       .  S
N1081      N1082   1.323       .  A
N1081      C1085   1.347       .  A
N1081     Cu1089   2.084       .  S
N1082      C1083   1.345       .  A
N1082     Cu1088   2.081       .  S
C1083      C1084   1.386       .  A
C1083      H1086   1.081       .  S
C1084      C1085   1.387       .  A
C1084      C1365   1.485       .  S
C1085      H1087   1.082       .  S
Cu1088     N1091   2.081       .  S
Cu1089     N1099   2.083       .  S
Cu1090     N1092   2.072       .  S
Cu1090     N1098   2.072       .  S
N1091      N1092   1.320       .  A
N1091      C1095   1.345       .  A
N1092      C1093   1.347       .  A
C1093      C1094   1.388       .  A
C1093      H1096   1.081       .  S
C1094      C1095   1.388       .  A
C1094      C1405   1.487       .  S
C1095      H1097   1.082       .  S
N1098      N1099   1.323       .  A
N1098      C1102   1.342       .  A
N1099      C1100   1.348       .  A
C1100      C1101   1.386       .  A
C1100      H1103   1.082       .  S
C1101      C1102   1.382       .  A
C1101      C1342   1.479       .  S
C1102      H1104   1.082       .  S
N1105      N1106   1.323       .  A
N1105      C1109   1.345       .  A
N1105     Cu1113   2.068       .  S
N1106      C1107   1.346       .  A
N1106     Cu1112   2.085       .  S
C1107      C1108   1.385       .  A
C1107      H1110   1.082       .  S
C1108      C1109   1.382       .  A
C1108      C1332   1.476       .  S
C1109      H1111   1.082       .  S
Cu1112     N1115   2.084       .  S
Cu1113     N1123   2.068       .  S
Cu1114     N1116   2.077       .  S
Cu1114     N1122   2.076       .  S
N1115      N1116   1.323       .  A
N1115      C1119   1.347       .  A
N1116      C1117   1.345       .  A
C1117      C1118   1.385       .  A
C1117      H1120   1.082       .  S
C1118      C1119   1.387       .  A
C1118      C1422   1.482       .  S
C1119      H1121   1.082       .  S
N1122      N1123   1.322       .  A
N1122      C1126   1.345       .  A
N1123      C1124   1.344       .  A
C1124      C1125   1.382       .  A
C1124      H1127   1.082       .  S
C1125      C1126   1.384       .  A
C1125      C1372   1.475       .  S
C1126      H1128   1.082       .  S
N1129      N1130   1.324       .  A
N1129      C1133   1.342       .  A
N1129     Cu1137   2.071       .  S
N1130      C1131   1.349       .  A
N1130     Cu1136   2.089       .  S
C1131      C1132   1.386       .  A
C1131      H1134   1.082       .  S
C1132      C1133   1.380       .  A
C1132      C1325   1.476       .  S
C1133      H1135   1.082       .  S
Cu1136     N1139   2.089       .  S
Cu1137     N1147   2.070       .  S
Cu1138     N1140   2.069       .  S
Cu1138     N1146   2.069       .  S
N1139      N1140   1.323       .  A
N1139      C1143   1.350       .  A
N1140      C1141   1.340       .  A
C1141      C1142   1.383       .  A
C1141      H1144   1.082       .  S
C1142      C1143   1.389       .  A
C1142      C1435   1.483       .  S
C1143      H1145   1.082       .  S
N1146      N1147   1.319       .  A
N1146      C1150   1.344       .  A
N1147      C1148   1.346       .  A
C1148      C1149   1.386       .  A
C1148      H1151   1.082       .  S
C1149      C1150   1.386       .  A
C1149      C1395   1.481       .  S
C1150      H1152   1.082       .  S
O1153     Cu1161   2.025       .  S
O1153      C1163   1.280       .  A
O1154     Cu1161   2.008       .  S
O1154      C1164   1.278       .  A
O1155     Cu1161   2.022       .  S
O1155      C1165   1.279       .  A
O1156     Cu1161   2.020       .  S
O1156      C1166   1.279       .  A
O1157     Cu1162   2.007       .  S
O1157      C1166   1.278       .  A
O1158     Cu1162   2.015       .  S
O1158      C1165   1.278       .  A
O1159     Cu1162   2.010       .  S
O1159      C1164   1.278       .  A
O1160     Cu1162   2.003       .  S
O1160      C1163   1.277       .  A
Cu1161    Cu1162   2.372       .  S
C1163      C1465   1.482       .  S
C1164      C1702   1.472       .  S
C1165      C1585   1.480       .  S
C1166      C1322   1.482       .  S
O1167     Cu1175   2.014       .  S
O1167      C1177   1.279       .  A
O1168     Cu1175   2.026       .  S
O1168      C1178   1.280       .  A
O1169     Cu1175   2.006       .  S
O1169      C1179   1.277       .  A
O1170     Cu1175   2.007       .  S
O1170      C1180   1.278       .  A
O1171     Cu1176   2.010       .  S
O1171      C1180   1.278       .  A
O1172     Cu1176   2.010       .  S
O1172      C1179   1.278       .  A
O1173     Cu1176   2.006       .  S
O1173      C1178   1.278       .  A
O1174     Cu1176   2.012       .  S
O1174      C1177   1.278       .  A
Cu1175    Cu1176   2.371       .  S
C1177      C1932   1.482       .  S
C1178      C1335   1.483       .  S
C1179      C2045   1.478       .  S
C1180      C1685   1.478       .  S
O1181     Cu1189   1.999       .  S
O1181      C1191   1.277       .  A
O1182     Cu1189   2.012       .  S
O1182      C1192   1.279       .  A
O1183     Cu1189   2.000       .  S
O1183      C1193   1.276       .  A
O1184     Cu1189   2.008       .  S
O1184      C1194   1.278       .  A
O1185     Cu1190   2.005       .  S
O1185      C1194   1.277       .  A
O1186     Cu1190   2.022       .  S
O1186      C1193   1.280       .  A
O1187     Cu1190   2.004       .  S
O1187      C1192   1.277       .  A
O1188     Cu1190   2.018       .  S
O1188      C1191   1.278       .  A
Cu1189    Cu1190   2.375       .  S
C1191      C1345   1.470       .  S
C1192      C2165   1.476       .  S
C1193      C1455   1.477       .  S
C1194      C2055   1.471       .  S
O1195     Cu1203   2.001       .  S
O1195      C1205   1.277       .  A
O1196     Cu1203   2.005       .  S
O1196      C1206   1.277       .  A
O1197     Cu1203   1.995       .  S
O1197      C1207   1.276       .  A
O1198     Cu1203   2.006       .  S
O1198      C1208   1.278       .  A
O1199     Cu1204   2.008       .  S
O1199      C1208   1.278       .  A
O1200     Cu1204   2.020       .  S
O1200      C1207   1.279       .  A
O1201     Cu1204   2.018       .  S
O1201      C1206   1.279       .  A
O1202     Cu1204   2.012       .  S
O1202      C1205   1.278       .  A
Cu1203    Cu1204   2.374       .  S
C1205      C1825   1.471       .  S
C1206      C1445   1.479       .  S
C1207      C2175   1.475       .  S
C1208      C1575   1.475       .  S
O1209     Cu1217   1.990       .  S
O1209      C1219   1.275       .  A
O1210     Cu1217   2.001       .  S
O1210      C1220   1.277       .  A
O1211     Cu1217   1.999       .  S
O1211      C1221   1.277       .  A
O1212     Cu1217   2.004       .  S
O1212      C1222   1.277       .  A
O1213     Cu1218   2.020       .  S
O1213      C1222   1.279       .  A
O1214     Cu1218   2.016       .  S
O1214      C1221   1.279       .  A
O1215     Cu1218   2.005       .  S
O1215      C1220   1.277       .  A
O1216     Cu1218   2.015       .  S
O1216      C1219   1.279       .  A
Cu1217    Cu1218   2.374       .  S
C1219      C1805   1.469       .  S
C1220      C1692   1.473       .  S
C1221      C1565   1.476       .  S
C1222      C1925   1.477       .  S
O1223     Cu1231   2.025       .  S
O1223      C1233   1.279       .  A
O1224     Cu1231   2.020       .  S
O1224      C1234   1.279       .  A
O1225     Cu1231   2.015       .  S
O1225      C1235   1.279       .  A
O1226     Cu1231   2.015       .  S
O1226      C1236   1.279       .  A
O1227     Cu1232   2.001       .  S
O1227      C1236   1.277       .  A
O1228     Cu1232   2.007       .  S
O1228      C1235   1.277       .  A
O1229     Cu1232   2.010       .  S
O1229      C1234   1.278       .  A
O1230     Cu1232   2.015       .  S
O1230      C1233   1.278       .  A
Cu1231    Cu1232   2.374       .  S
C1233      C2065   1.477       .  S
C1234      C1815   1.480       .  S
C1235      C1945   1.477       .  S
C1236      C2185   1.476       .  S
O1237     Cu1245   2.011   1_565  S
O1237      C1247   1.278       .  A
O1238     Cu1245   2.025       .  S
O1238      C1248   1.280       .  A
O1239     Cu1245   1.998   1_565  S
O1239      C1249   1.276       .  A
O1240     Cu1245   2.002       .  S
O1240      C1250   1.277   1_455  A
O1241     Cu1246   2.014       .  S
O1241      C1250   1.279   1_455  A
O1242     Cu1246   2.015   1_565  S
O1242      C1249   1.279       .  A
O1243     Cu1246   1.999       .  S
O1243      C1248   1.276       .  A
O1244     Cu1246   2.008   1_565  S
O1244      C1247   1.278       .  A
Cu1245    Cu1246   2.374       .  S
C1247      C1625   1.474   1_455  S
C1248      C1355   1.480       .  S
C1249      C1742   1.470       .  S
C1250      C1505   1.475       .  S
O1251     Cu1259   2.006   1_565  S
O1251      C1261   1.278       .  A
O1252     Cu1259   2.003       .  S
O1252      C1262   1.277       .  A
O1253     Cu1259   2.020       .  S
O1253      C1263   1.279   1_545  A
O1254     Cu1259   2.010       .  S
O1254      C1264   1.278   1_455  A
O1255     Cu1260   2.015       .  S
O1255      C1264   1.279   1_455  A
O1256     Cu1260   2.001       .  S
O1256      C1263   1.277   1_545  A
O1257     Cu1260   2.002       .  S
O1257      C1262   1.277       .  A
O1258     Cu1260   2.002   1_565  S
O1258      C1261   1.277       .  A
Cu1259    Cu1260   2.373       .  S
C1261      C1895   1.473   1_455  S
C1262      C2102   1.469       .  S
C1263      C1982   1.473       .  S
C1264      C2225   1.483       .  S
O1265     Cu1273   2.004       .  S
O1265      C1275   1.278       .  A
O1266     Cu1273   2.009   1_554  S
O1266      C1276   1.277   1_545  A
O1267     Cu1273   2.012   1_554  S
O1267      C1277   1.279       .  A
O1268     Cu1273   2.009       .  S
O1268      C1278   1.278   1_545  A
O1269     Cu1274   2.008       .  S
O1269      C1278   1.278   1_545  A
O1270     Cu1274   2.013   1_554  S
O1270      C1277   1.279       .  A
O1271     Cu1274   2.002   1_564  S
O1271      C1276   1.277       .  A
O1272     Cu1274   2.007       .  S
O1272      C1275   1.277       .  A
Cu1273    Cu1274   2.375       .  S
C1275      C2075   1.473       .  S
C1276      C1715   1.469       .  S
C1277      C1382   1.481       .  S
C1278      C2015   1.474       .  S
O1279     Cu1287   2.007       .  S
O1279      C1289   1.278   1_455  A
O1280     Cu1287   2.008   1_554  S
O1280      C1290   1.278       .  A
O1281     Cu1287   2.008       .  S
O1281      C1291   1.277       .  A
O1282     Cu1287   2.013   1_554  S
O1282      C1292   1.278       .  A
O1283     Cu1288   2.010   1_554  S
O1283      C1292   1.278       .  A
O1284     Cu1288   2.006       .  S
O1284      C1291   1.278       .  A
O1285     Cu1288   2.008   1_554  S
O1285      C1290   1.278       .  A
O1286     Cu1288   2.005       .  S
O1286      C1289   1.277   1_455  A
Cu1287    Cu1288   2.370       .  S
C1289      C2195   1.473       .  S
C1290      C1415   1.480       .  S
C1291      C2135   1.471       .  S
C1292      C1535   1.478   1_455  S
O1293     Cu1301   2.019   1_565  S
O1293      C1303   1.280       .  A
O1294     Cu1301   2.019       .  S
O1294      C1304   1.279       .  A
O1295     Cu1301   2.002   1_565  S
O1295      C1305   1.276       .  A
O1296     Cu1301   1.992       .  S
O1296      C1306   1.275       .  A
O1297     Cu1302   2.015       .  S
O1297      C1306   1.279       .  A
O1298     Cu1302   2.002   1_565  S
O1298      C1305   1.277       .  A
O1299     Cu1302   2.012       .  S
O1299      C1304   1.278       .  A
O1300     Cu1302   2.012   1_565  S
O1300      C1303   1.278       .  A
Cu1301    Cu1302   2.373       .  S
C1303      C1865   1.482       .  S
C1304      C1475   1.477   1_556  S
C1305      C1652   1.464   1_556  S
C1306      C2255   1.469       .  S
O1307     Cu1315   2.017       .  S
O1307      C1317   1.280       .  A
O1308     Cu1315   2.027   1_554  S
O1308      C1318   1.280       .  A
O1309     Cu1315   1.998       .  S
O1309      C1319   1.277       .  A
O1310     Cu1315   2.006   1_554  S
O1310      C1320   1.277       .  A
O1311     Cu1316   2.012   1_554  S
O1311      C1320   1.278       .  A
O1312     Cu1316   2.021       .  S
O1312      C1319   1.279       .  A
O1313     Cu1316   2.000   1_554  S
O1313      C1318   1.277       .  A
O1314     Cu1316   2.016       .  S
O1314      C1317   1.278       .  A
Cu1315    Cu1316   2.372       .  S
C1317      C1835   1.484   1_455  S
C1318      C1772   1.483       .  S
C1319      C1952   1.477       .  S
C1320      C1592   1.474       .  S
C1321      C1322   1.405       .  A
C1321      C1326   1.397       .  A
C1321      H1328   1.083       .  S
C1322      C1323   1.410       .  A
C1323      C1324   1.402       .  A
C1323      F1330   1.357       .  S
C1324      C1325   1.403       .  A
C1324      H1329   1.083       .  S
C1325      C1326   1.405       .  A
C1326      F1327   1.358       .  S
C1331      C1332   1.404       .  A
C1331      C1336   1.402       .  A
C1331      H1338   1.083       .  S
C1332      C1333   1.404       .  A
C1333      C1334   1.398       .  A
C1333      F1340   1.358       .  S
C1334      C1335   1.406       .  A
C1334      H1339   1.083       .  S
C1335      C1336   1.409       .  A
C1336      F1337   1.357       .  S
C1341      C1342   1.406       .  A
C1341      C1346   1.402       .  A
C1341      H1348   1.083       .  S
C1342      C1343   1.408       .  A
C1343      C1344   1.394       .  A
C1343      F1350   1.357       .  S
C1344      C1345   1.400       .  A
C1344      H1349   1.084       .  S
C1345      C1346   1.406       .  A
C1346      F1347   1.358       .  S
C1351      C1352   1.403       .  A
C1351      C1356   1.397       .  A
C1351      H1358   1.083       .  S
C1352      C1353   1.408       .  A
C1353      C1354   1.400       .  A
C1353      F1360   1.357       .  S
C1354      C1355   1.404       .  A
C1354      H1359   1.083       .  S
C1355      C1356   1.409       .  A
C1356      F1357   1.358       .  S
C1361      C1362   1.406       .  A
C1361      C1366   1.400       .  A
C1361      H1368   1.082       .  S
C1362      C1363   1.409       .  A
C1363      C1364   1.401       .  A
C1363      F1370   1.356       .  S
C1364      C1365   1.405       .  A
C1364      H1369   1.083       .  S
C1365      C1366   1.408       .  A
C1366      F1367   1.357       .  S
C1371      C1372   1.404       .  A
C1371      C1376   1.399       .  A
C1371      H1378   1.083       .  S
C1372      C1373   1.404       .  A
C1373      C1374   1.397       .  A
C1373      F1380   1.357       .  S
C1374      C1375   1.404       .  A
C1374      H1379   1.083       .  S
C1375      C1376   1.406       .  A
C1376      F1377   1.358       .  S
C1381      C1382   1.406       .  A
C1381      C1386   1.400       .  A
C1381      H1388   1.083       .  S
C1382      C1383   1.409       .  A
C1383      C1384   1.400       .  A
C1383      F1390   1.357       .  S
C1384      C1385   1.402       .  A
C1384      H1389   1.083       .  S
C1385      C1386   1.405       .  A
C1386      F1387   1.357       .  S
C1391      C1392   1.405       .  A
C1391      C1396   1.395       .  A
C1391      H1398   1.083       .  S
C1392      C1393   1.406       .  A
C1393      C1394   1.402       .  A
C1393      F1400   1.357       .  S
C1394      C1395   1.407       .  A
C1394      H1399   1.083       .  S
C1395      C1396   1.406       .  A
C1396      F1397   1.357       .  S
C1401      C1402   1.403       .  A
C1401      C1406   1.402       .  A
C1401      H1408   1.083       .  S
C1402      C1403   1.407       .  A
C1403      C1404   1.398       .  A
C1403      F1410   1.358       .  S
C1404      C1405   1.405       .  A
C1404      H1409   1.083       .  S
C1405      C1406   1.411       .  A
C1406      F1407   1.356       .  S
C1411      C1412   1.402       .  A
C1411      C1416   1.398       .  A
C1411      H1418   1.083       .  S
C1412      C1413   1.404       .  A
C1413      C1414   1.398       .  A
C1413      F1420   1.357       .  S
C1414      C1415   1.406       .  A
C1414      H1419   1.083       .  S
C1415      C1416   1.409       .  A
C1416      F1417   1.357       .  S
C1421      C1422   1.405       .  A
C1421      C1426   1.399       .  A
C1421      H1428   1.083       .  S
C1422      C1423   1.407       .  A
C1423      C1424   1.401       .  A
C1423      F1430   1.357       .  S
C1424      C1425   1.405       .  A
C1424      H1429   1.083       .  S
C1425      C1426   1.407       .  A
C1426      F1427   1.357       .  S
C1431      C1432   1.404       .  A
C1431      C1436   1.393       .  A
C1431      H1438   1.082       .  S
C1432      C1433   1.410       .  A
C1433      C1434   1.405       .  A
C1433      F1440   1.357       .  S
C1434      C1435   1.406       .  A
C1434      H1439   1.083       .  S
C1435      C1436   1.406       .  A
C1436      F1437   1.357       .  S
C1441      C1442   1.405       .  A
C1441      C1446   1.399       .  A
C1441      H1448   1.083       .  S
C1442      C1443   1.406       .  A
C1443      C1444   1.399       .  A
C1443      F1450   1.357       .  S
C1444      C1445   1.405       .  A
C1444      H1449   1.083       .  S
C1445      C1446   1.406       .  A
C1446      F1447   1.357       .  S
C1451      C1452   1.405       .  A
C1451      C1456   1.399       .  A
C1451      H1458   1.083       .  S
C1452      C1453   1.407       .  A
C1453      C1454   1.400       .  A
C1453      F1460   1.357       .  S
C1454      C1455   1.404       .  A
C1454      H1459   1.083       .  S
C1455      C1456   1.407       .  A
C1456      F1457   1.358       .  S
C1461      C1462   1.402       .  A
C1461      C1466   1.401       .  A
C1461      H1468   1.083       .  S
C1462      C1463   1.404       .  A
C1463      C1464   1.398       .  A
C1463      F1470   1.358       .  S
C1464      C1465   1.406       .  A
C1464      H1469   1.083       .  S
C1465      C1466   1.409       .  A
C1466      F1467   1.357       .  S
C1471      C1472   1.406       .  A
C1471      C1476   1.400       .  A
C1471      H1478   1.082       .  S
C1472      C1473   1.412       .  A
C1473      C1474   1.402       .  A
C1473      F1480   1.356       .  S
C1474      C1475   1.402       .  A
C1474      H1479   1.083   1_554  S
C1475      C1476   1.405       .  A
C1476      F1477   1.358       .  S
C1481      C1482   1.407       .  A
C1481      C1486   1.404       .  A
C1481      H1488   1.083       .  S
C1482      C1483   1.408       .  A
C1483      C1484   1.397       .  A
C1483      F1490   1.356       .  S
C1484      C1485   1.403       .  A
C1484      H1489   1.083       .  S
C1485      C1486   1.409       .  A
C1486      F1487   1.357       .  S
C1491      C1492   1.405       .  A
C1491      C1496   1.404       .  A
C1491      H1498   1.083       .  S
C1492      C1493   1.404       .  A
C1493      C1494   1.394       .  A
C1493      F1500   1.358       .  S
C1494      C1495   1.404       .  A
C1494      H1499   1.083       .  S
C1495      C1496   1.408       .  A
C1496      F1497   1.357       .  S
C1501      C1502   1.403       .  A
C1501      C1506   1.398       .  A
C1501      H1508   1.083       .  S
C1502      C1503   1.406       .  A
C1503      C1504   1.398       .  A
C1503      F1510   1.357       .  S
C1504      C1505   1.403       .  A
C1504      H1509   1.083       .  S
C1505      C1506   1.408       .  A
C1506      F1507   1.358       .  S
C1511      C1512   1.406       .  A
C1511      C1516   1.396       .  A
C1511      H1518   1.083       .  S
C1512      C1513   1.408       .  A
C1513      C1514   1.403       .  A
C1513      F1520   1.357       .  S
C1514      C1515   1.405       .  A
C1514      H1519   1.083       .  S
C1515      C1516   1.404       .  A
C1516      F1517   1.357       .  S
C1521      C1522   1.405       .  A
C1521      C1526   1.402       .  A
C1521      H1528   1.083       .  S
C1522      C1523   1.407       .  A
C1523      C1524   1.398       .  A
C1523      F1530   1.357       .  S
C1524      C1525   1.404       .  A
C1524      H1529   1.083       .  S
C1525      C1526   1.407       .  A
C1526      F1527   1.357       .  S
C1531      C1532   1.403       .  A
C1531      C1536   1.398       .  A
C1531      H1538   1.083       .  S
C1532      C1533   1.407       .  A
C1533      C1534   1.400       .  A
C1533      F1540   1.357       .  S
C1534      C1535   1.405       .  A
C1534      H1539   1.083   1_655  S
C1535      C1536   1.407       .  A
C1536      F1537   1.357       .  S
C1541      C1542   1.404       .  A
C1541      C1546   1.394       .  A
C1541      H1548   1.083       .  S
C1542      C1543   1.409       .  A
C1543      C1544   1.400       .  A
C1543      F1550   1.357       .  S
C1544      C1545   1.402       .  A
C1544      H1549   1.083       .  S
C1545      C1546   1.405       .  A
C1546      F1547   1.357       .  S
C1551      C1552   1.405       .  A
C1551      C1556   1.398       .  A
C1551      H1558   1.083       .  S
C1552      C1553   1.406       .  A
C1553      C1554   1.400       .  A
C1553      F1560   1.357       .  S
C1554      C1555   1.405       .  A
C1554      H1559   1.083       .  S
C1555      C1556   1.407       .  A
C1556      F1557   1.357       .  S
C1561      C1562   1.405       .  A
C1561      C1566   1.399       .  A
C1561      H1568   1.083       .  S
C1562      C1563   1.407       .  A
C1563      C1564   1.396       .  A
C1563      F1570   1.357       .  S
C1564      C1565   1.404       .  A
C1564      H1569   1.083       .  S
C1565      C1566   1.406       .  A
C1566      F1567   1.357       .  S
C1571      C1572   1.404       .  A
C1571      C1576   1.398       .  A
C1571      H1578   1.083       .  S
C1572      C1573   1.406       .  A
C1573      C1574   1.397       .  A
C1573      F1580   1.357       .  S
C1574      C1575   1.404       .  A
C1574      H1579   1.083       .  S
C1575      C1576   1.407       .  A
C1576      F1577   1.358       .  S
C1581      C1582   1.405       .  A
C1581      C1586   1.400       .  A
C1581      H1588   1.083       .  S
C1582      C1583   1.409       .  A
C1583      C1584   1.404       .  A
C1583      F1590   1.357       .  S
C1584      C1585   1.405       .  A
C1584      H1589   1.084       .  S
C1585      C1586   1.405       .  A
C1586      F1587   1.357       .  S
C1591      C1592   1.403   1_655  A
C1591      C1596   1.397       .  A
C1591      H1598   1.083       .  S
C1592      C1593   1.406       .  A
C1593      C1594   1.400   1_455  A
C1593      F1600   1.358       .  S
C1594      C1595   1.404       .  A
C1594      H1599   1.083       .  S
C1595      C1596   1.405       .  A
C1596      F1597   1.357       .  S
C1601      C1602   1.405       .  A
C1601      C1606   1.399       .  A
C1601      H1608   1.083       .  S
C1602      C1603   1.406       .  A
C1603      C1604   1.398       .  A
C1603      F1610   1.357       .  S
C1604      C1605   1.405       .  A
C1604      H1609   1.083       .  S
C1605      C1606   1.406       .  A
C1606      F1607   1.357       .  S
C1611      C1612   1.407       .  A
C1611      C1616   1.401       .  A
C1611      H1618   1.083       .  S
C1612      C1613   1.410       .  A
C1613      C1614   1.398       .  A
C1613      F1620   1.357       .  S
C1614      C1615   1.401       .  A
C1614      H1619   1.083       .  S
C1615      C1616   1.402       .  A
C1616      F1617   1.357       .  S
C1621      C1622   1.404       .  A
C1621      C1626   1.398       .  A
C1621      H1628   1.083       .  S
C1622      C1623   1.407       .  A
C1623      C1624   1.400       .  A
C1623      F1630   1.357       .  S
C1624      C1625   1.403       .  A
C1624      H1629   1.083   1_655  S
C1625      C1626   1.405       .  A
C1626      F1627   1.358       .  S
C1631      C1632   1.403       .  A
C1631      C1636   1.396       .  A
C1631      H1638   1.082       .  S
C1632      C1633   1.407       .  A
C1633      C1634   1.400       .  A
C1633      F1640   1.357       .  S
C1634      C1635   1.405       .  A
C1634      H1639   1.082       .  S
C1635      C1636   1.407       .  A
C1636      F1637   1.357       .  S
C1641      C1642   1.404       .  A
C1641      C1646   1.397       .  A
C1641      H1648   1.083       .  S
C1642      C1643   1.407       .  A
C1643      C1644   1.399       .  A
C1643      F1650   1.357       .  S
C1644      C1645   1.404       .  A
C1644      H1649   1.083       .  S
C1645      C1646   1.406       .  A
C1646      F1647   1.357       .  S
C1651      C1652   1.402       .  A
C1651      C1656   1.398       .  A
C1651      H1658   1.084       .  S
C1652      C1653   1.400       .  A
C1653      C1654   1.395       .  A
C1653      F1660   1.358   1_554  S
C1654      C1655   1.408       .  A
C1654      H1659   1.083       .  S
C1655      C1656   1.408       .  A
C1656      F1657   1.357       .  S
C1661      C1662   1.404       .  A
C1661      C1666   1.395       .  A
C1661      H1668   1.083       .  S
C1662      C1663   1.406       .  A
C1663      C1664   1.401       .  A
C1663      F1670   1.357       .  S
C1664      C1665   1.404       .  A
C1664      H1669   1.083       .  S
C1665      C1666   1.406       .  A
C1666      F1667   1.358       .  S
C1671      C1672   1.405       .  A
C1671      C1676   1.400       .  A
C1671      H1678   1.082       .  S
C1672      C1673   1.409       .  A
C1673      C1674   1.398       .  A
C1673      F1680   1.357       .  S
C1674      C1675   1.401       .  A
C1674      H1679   1.083       .  S
C1675      C1676   1.404       .  A
C1676      F1677   1.357       .  S
C1681      C1682   1.403       .  A
C1681      C1686   1.398       .  A
C1681      H1688   1.083       .  S
C1682      C1683   1.405       .  A
C1683      C1684   1.398       .  A
C1683      F1690   1.357       .  S
C1684      C1685   1.405       .  A
C1684      H1689   1.083       .  S
C1685      C1686   1.408       .  A
C1686      F1687   1.357       .  S
C1691      C1692   1.404       .  A
C1691      C1696   1.396       .  A
C1691      H1698   1.083       .  S
C1692      C1693   1.407       .  A
C1693      C1694   1.398       .  A
C1693      F1700   1.358       .  S
C1694      C1695   1.404       .  A
C1694      H1699   1.083       .  S
C1695      C1696   1.403       .  A
C1696      F1697   1.357       .  S
C1701      C1702   1.404       .  A
C1701      C1706   1.401       .  A
C1701      H1708   1.083       .  S
C1702      C1703   1.403       .  A
C1703      C1704   1.397       .  A
C1703      F1710   1.357       .  S
C1704      C1705   1.404       .  A
C1704      H1709   1.083       .  S
C1705      C1706   1.408       .  A
C1706      F1707   1.357       .  S
C1711      C1712   1.406       .  A
C1711      C1716   1.399       .  A
C1711      H1718   1.083       .  S
C1712      C1713   1.408       .  A
C1713      C1714   1.395       .  A
C1713      F1720   1.357       .  S
C1714      C1715   1.401       .  A
C1714      H1719   1.084       .  S
C1715      C1716   1.404       .  A
C1716      F1717   1.357       .  S
C1721      C1722   1.405       .  A
C1721      C1726   1.397       .  A
C1721      H1728   1.082       .  S
C1722      C1723   1.407       .  A
C1723      C1724   1.396       .  A
C1723      F1730   1.357       .  S
C1724      C1725   1.405       .  A
C1724      H1729   1.083       .  S
C1725      C1726   1.406       .  A
C1726      F1727   1.357       .  S
C1731      C1732   1.406       .  A
C1731      C1736   1.403       .  A
C1731      H1738   1.083       .  S
C1732      C1733   1.407       .  A
C1733      C1734   1.394       .  A
C1733      F1740   1.357       .  S
C1734      C1735   1.403       .  A
C1734      H1739   1.083       .  S
C1735      C1736   1.408       .  A
C1736      F1737   1.357       .  S
C1741      C1742   1.403       .  A
C1741      C1746   1.400       .  A
C1741      H1748   1.083       .  S
C1742      C1743   1.405       .  A
C1743      C1744   1.396       .  A
C1743      F1750   1.358       .  S
C1744      C1745   1.403       .  A
C1744      H1749   1.083       .  S
C1745      C1746   1.407       .  A
C1746      F1747   1.357       .  S
C1751      C1752   1.403       .  A
C1751      C1756   1.399       .  A
C1751      H1758   1.083       .  S
C1752      C1753   1.407       .  A
C1753      C1754   1.398       .  A
C1753      F1760   1.357       .  S
C1754      C1755   1.403       .  A
C1754      H1759   1.083       .  S
C1755      C1756   1.408       .  A
C1756      F1757   1.357       .  S
C1761      C1762   1.403       .  A
C1761      C1766   1.393       .  A
C1761      H1768   1.083       .  S
C1762      C1763   1.405       .  A
C1763      C1764   1.397       .  A
C1763      F1770   1.357       .  S
C1764      C1765   1.402       .  A
C1764      H1769   1.083       .  S
C1765      C1766   1.405       .  A
C1766      F1767   1.358       .  S
C1771      C1772   1.407       .  A
C1771      C1776   1.398       .  A
C1771      H1778   1.083       .  S
C1772      C1773   1.408       .  A
C1773      C1774   1.401       .  A
C1773      F1780   1.357       .  S
C1774      C1775   1.405       .  A
C1774      H1779   1.083       .  S
C1775      C1776   1.404       .  A
C1776      F1777   1.358       .  S
C1781      C1782   1.402       .  A
C1781      C1786   1.398       .  A
C1781      H1788   1.083       .  S
C1782      C1783   1.405       .  A
C1783      C1784   1.396       .  A
C1783      F1790   1.357       .  S
C1784      C1785   1.405       .  A
C1784      H1789   1.082       .  S
C1785      C1786   1.408       .  A
C1786      F1787   1.357       .  S
C1791      C1792   1.404       .  A
C1791      C1796   1.392       .  A
C1791      H1798   1.083       .  S
C1792      C1793   1.407       .  A
C1793      C1794   1.399       .  A
C1793      F1800   1.357       .  S
C1794      C1795   1.404       .  A
C1794      H1799   1.083       .  S
C1795      C1796   1.406       .  A
C1796      F1797   1.357       .  S
C1801      C1802   1.401       .  A
C1801      C1806   1.395       .  A
C1801      H1808   1.083       .  S
C1802      C1803   1.404       .  A
C1803      C1804   1.398       .  A
C1803      F1810   1.357       .  S
C1804      C1805   1.403       .  A
C1804      H1809   1.083       .  S
C1805      C1806   1.406       .  A
C1806      F1807   1.358       .  S
C1811      C1812   1.404       .  A
C1811      C1816   1.403       .  A
C1811      H1818   1.083       .  S
C1812      C1813   1.407       .  A
C1813      C1814   1.398       .  A
C1813      F1820   1.357       .  S
C1814      C1815   1.403       .  A
C1814      H1819   1.084       .  S
C1815      C1816   1.408       .  A
C1816      F1817   1.357       .  S
C1821      C1822   1.403       .  A
C1821      C1826   1.395       .  A
C1821      H1828   1.083       .  S
C1822      C1823   1.407       .  A
C1823      C1824   1.400       .  A
C1823      F1830   1.357       .  S
C1824      C1825   1.403       .  A
C1824      H1829   1.083       .  S
C1825      C1826   1.404       .  A
C1826      F1827   1.358       .  S
C1831      C1832   1.404       .  A
C1831      C1836   1.403       .  A
C1831      H1838   1.083       .  S
C1832      C1833   1.406       .  A
C1833      C1834   1.398       .  A
C1833      F1840   1.357       .  S
C1834      C1835   1.405       .  A
C1834      H1839   1.083   1_655  S
C1835      C1836   1.410       .  A
C1836      F1837   1.357       .  S
C1841      C1842   1.404       .  A
C1841      C1846   1.403       .  A
C1841      H1848   1.083       .  S
C1842      C1843   1.405       .  A
C1843      C1844   1.395       .  A
C1843      F1850   1.358       .  S
C1844      C1845   1.404       .  A
C1844      H1849   1.083       .  S
C1845      C1846   1.408       .  A
C1846      F1847   1.357       .  S
C1851      C1852   1.406       .  A
C1851      C1856   1.401       .  A
C1851      H1858   1.083       .  S
C1852      C1853   1.405       .  A
C1853      C1854   1.395       .  A
C1853      F1860   1.357       .  S
C1854      C1855   1.405       .  A
C1854      H1859   1.082       .  S
C1855      C1856   1.407       .  A
C1856      F1857   1.357       .  S
C1861      C1862   1.403       .  A
C1861      C1866   1.401       .  A
C1861      H1868   1.083       .  S
C1862      C1863   1.406       .  A
C1863      C1864   1.400       .  A
C1863      F1870   1.357       .  S
C1864      C1865   1.405       .  A
C1864      H1869   1.083       .  S
C1865      C1866   1.409       .  A
C1866      F1867   1.358       .  S
C1871      C1872   1.407       .  A
C1871      C1876   1.400       .  A
C1871      H1878   1.083       .  S
C1872      C1873   1.407       .  A
C1873      C1874   1.397       .  A
C1873      F1880   1.357       .  S
C1874      C1875   1.403       .  A
C1874      H1879   1.083       .  S
C1875      C1876   1.405       .  A
C1876      F1877   1.358       .  S
C1881      C1882   1.406       .  A
C1881      C1886   1.400       .  A
C1881      H1888   1.082       .  S
C1882      C1883   1.410       .  A
C1883      C1884   1.398       .  A
C1883      F1890   1.357       .  S
C1884      C1885   1.401       .  A
C1884      H1889   1.083       .  S
C1885      C1886   1.404       .  A
C1886      F1887   1.357       .  S
C1891      C1892   1.404       .  A
C1891      C1896   1.399       .  A
C1891      H1898   1.083       .  S
C1892      C1893   1.406       .  A
C1893      C1894   1.396       .  A
C1893      F1900   1.357       .  S
C1894      C1895   1.402       .  A
C1894      H1899   1.083       .  S
C1895      C1896   1.407       .  A
C1896      F1897   1.358   1_655  S
C1901      C1902   1.406       .  A
C1901      C1906   1.397       .  A
C1901      H1908   1.083       .  S
C1902      C1903   1.407       .  A
C1903      C1904   1.399       .  A
C1903      F1910   1.357       .  S
C1904      C1905   1.404       .  A
C1904      H1909   1.083       .  S
C1905      C1906   1.405       .  A
C1906      F1907   1.357       .  S
C1911      C1912   1.403       .  A
C1911      C1916   1.395       .  A
C1911      H1918   1.083       .  S
C1912      C1913   1.408       .  A
C1913      C1914   1.402       .  A
C1913      F1920   1.357       .  S
C1914      C1915   1.405       .  A
C1914      H1919   1.083       .  S
C1915      C1916   1.406       .  A
C1916      F1917   1.357       .  S
C1921      C1922   1.403       .  A
C1921      C1926   1.399       .  A
C1921      H1928   1.083       .  S
C1922      C1923   1.408       .  A
C1923      C1924   1.401       .  A
C1923      F1930   1.357       .  S
C1924      C1925   1.403       .  A
C1924      H1929   1.083       .  S
C1925      C1926   1.407       .  A
C1926      F1927   1.358       .  S
C1931      C1932   1.406       .  A
C1931      C1936   1.399       .  A
C1931      H1938   1.083       .  S
C1932      C1933   1.410       .  A
C1933      C1934   1.400       .  A
C1933      F1940   1.357       .  S
C1934      C1935   1.402       .  A
C1934      H1939   1.083       .  S
C1935      C1936   1.404       .  A
C1936      F1937   1.357       .  S
C1941      C1942   1.405       .  A
C1941      C1946   1.398       .  A
C1941      H1948   1.083       .  S
C1942      C1943   1.407       .  A
C1943      C1944   1.400       .  A
C1943      F1950   1.357       .  S
C1944      C1945   1.405       .  A
C1944      H1949   1.083       .  S
C1945      C1946   1.405       .  A
C1946      F1947   1.357       .  S
C1951      C1952   1.404       .  A
C1951      C1956   1.396       .  A
C1951      H1958   1.084       .  S
C1952      C1953   1.407       .  A
C1953      C1954   1.402       .  A
C1953      F1960   1.357       .  S
C1954      C1955   1.404       .  A
C1954      H1959   1.083       .  S
C1955      C1956   1.406       .  A
C1956      F1957   1.357       .  S
C1961      C1962   1.405       .  A
C1961      C1966   1.396       .  A
C1961      H1968   1.082       .  S
C1962      C1963   1.407       .  A
C1963      C1964   1.404       .  A
C1963      F1970   1.357       .  S
C1964      C1965   1.408       .  A
C1964      H1969   1.083       .  S
C1965      C1966   1.407       .  A
C1966      F1967   1.357       .  S
C1971      C1972   1.403       .  A
C1971      C1976   1.400       .  A
C1971      H1978   1.083       .  S
C1972      C1973   1.404       .  A
C1973      C1974   1.395       .  A
C1973      F1980   1.358       .  S
C1974      C1975   1.405       .  A
C1974      H1979   1.082       .  S
C1975      C1976   1.408       .  A
C1976      F1977   1.357       .  S
C1981      C1982   1.404       .  A
C1981      C1986   1.402       .  A
C1981      H1988   1.083       .  S
C1982      C1983   1.404       .  A
C1983      C1984   1.396       .  A
C1983      F1990   1.358       .  S
C1984      C1985   1.403       .  A
C1984      H1989   1.083       .  S
C1985      C1986   1.407       .  A
C1986      F1987   1.357       .  S
C1991      C1992   1.402       .  A
C1991      C1996   1.399       .  A
C1991      H1998   1.083       .  S
C1992      C1993   1.403       .  A
C1993      C1994   1.397       .  A
C1993      F2000   1.358       .  S
C1994      C1995   1.406       .  A
C1994      H1999   1.083       .  S
C1995      C1996   1.408       .  A
C1996      F1997   1.356       .  S
C2001      C2002   1.402       .  A
C2001      C2006   1.400       .  A
C2001      H2008   1.083       .  S
C2002      C2003   1.405       .  A
C2003      C2004   1.397       .  A
C2003      F2010   1.358       .  S
C2004      C2005   1.406       .  A
C2004      H2009   1.083       .  S
C2005      C2006   1.409       .  A
C2006      F2007   1.357       .  S
C2011      C2012   1.403       .  A
C2011      C2016   1.398       .  A
C2011      H2018   1.083       .  S
C2012      C2013   1.406       .  A
C2013      C2014   1.399       .  A
C2013      F2020   1.357       .  S
C2014      C2015   1.404       .  A
C2014      H2019   1.083       .  S
C2015      C2016   1.405       .  A
C2016      F2017   1.358       .  S
C2021      C2022   1.403       .  A
C2021      C2026   1.399       .  A
C2021      H2028   1.083       .  S
C2022      C2023   1.409       .  A
C2023      C2024   1.402       .  A
C2023      F2030   1.358       .  S
C2024      C2025   1.405       .  A
C2024      H2029   1.083       .  S
C2025      C2026   1.407       .  A
C2026      F2027   1.357       .  S
C2031      C2032   1.403       .  A
C2031      C2036   1.397       .  A
C2031      H2038   1.083       .  S
C2032      C2033   1.405       .  A
C2033      C2034   1.401       .  A
C2033      F2040   1.357       .  S
C2034      C2035   1.408       .  A
C2034      H2039   1.083       .  S
C2035      C2036   1.407       .  A
C2036      F2037   1.356       .  S
C2041      C2042   1.402       .  A
C2041      C2046   1.400       .  A
C2041      H2048   1.083       .  S
C2042      C2043   1.407       .  A
C2043      C2044   1.397       .  A
C2043      F2050   1.357       .  S
C2044      C2045   1.403       .  A
C2044      H2049   1.083       .  S
C2045      C2046   1.409       .  A
C2046      F2047   1.357       .  S
C2051      C2052   1.405       .  A
C2051      C2056   1.396       .  A
C2051      H2058   1.083       .  S
C2052      C2053   1.407       .  A
C2053      C2054   1.399       .  A
C2053      F2060   1.357       .  S
C2054      C2055   1.403       .  A
C2054      H2059   1.083       .  S
C2055      C2056   1.404       .  A
C2056      F2057   1.358       .  S
C2061      C2062   1.407       .  A
C2061      C2066   1.403       .  A
C2061      H2068   1.083       .  S
C2062      C2063   1.410       .  A
C2063      C2064   1.401       .  A
C2063      F2070   1.357       .  S
C2064      C2065   1.402       .  A
C2064      H2069   1.084       .  S
C2065      C2066   1.405       .  A
C2066      F2067   1.357       .  S
C2071      C2072   1.402       .  A
C2071      C2076   1.397       .  A
C2071      H2078   1.083       .  S
C2072      C2073   1.406       .  A
C2073      C2074   1.399       .  A
C2073      F2080   1.357       .  S
C2074      C2075   1.403       .  A
C2074      H2079   1.083       .  S
C2075      C2076   1.407       .  A
C2076      F2077   1.358       .  S
C2081      C2082   1.403       .  A
C2081      C2086   1.402       .  A
C2081      H2088   1.083       .  S
C2082      C2083   1.404       .  A
C2083      C2084   1.396       .  A
C2083      F2090   1.358       .  S
C2084      C2085   1.405       .  A
C2084      H2089   1.083       .  S
C2085      C2086   1.409       .  A
C2086      F2087   1.357       .  S
C2091      C2092   1.404       .  A
C2091      C2096   1.395       .  A
C2091      H2098   1.083       .  S
C2092      C2093   1.407       .  A
C2093      C2094   1.401       .  A
C2093      F2100   1.357       .  S
C2094      C2095   1.406       .  A
C2094      H2099   1.083       .  S
C2095      C2096   1.407       .  A
C2096      F2097   1.357       .  S
C2101      C2102   1.402       .  A
C2101      C2106   1.395       .  A
C2101      H2108   1.084       .  S
C2102      C2103   1.405       .  A
C2103      C2104   1.399       .  A
C2103      F2110   1.358       .  S
C2104      C2105   1.404       .  A
C2104      H2109   1.083       .  S
C2105      C2106   1.406       .  A
C2106      F2107   1.357       .  S
C2111      C2112   1.405       .  A
C2111      C2116   1.400       .  A
C2111      H2118   1.083       .  S
C2112      C2113   1.406       .  A
C2113      C2114   1.399       .  A
C2113      F2120   1.357       .  S
C2114      C2115   1.405       .  A
C2114      H2119   1.083       .  S
C2115      C2116   1.406       .  A
C2116      F2117   1.357       .  S
C2121      C2122   1.403       .  A
C2121      C2126   1.395       .  A
C2121      H2128   1.083       .  S
C2122      C2123   1.408       .  A
C2123      C2124   1.403       .  A
C2123      F2130   1.357       .  S
C2124      C2125   1.406       .  A
C2124      H2129   1.083       .  S
C2125      C2126   1.407       .  A
C2126      F2127   1.356       .  S
C2131      C2132   1.403       .  A
C2131      C2136   1.398       .  A
C2131      H2138   1.083       .  S
C2132      C2133   1.403       .  A
C2133      C2134   1.397       .  A
C2133      F2140   1.357       .  S
C2134      C2135   1.404       .  A
C2134      H2139   1.084       .  S
C2135      C2136   1.405       .  A
C2136      F2137   1.358       .  S
C2141      C2142   1.404       .  A
C2141      C2146   1.403       .  A
C2141      H2148   1.083       .  S
C2142      C2143   1.406       .  A
C2143      C2144   1.398       .  A
C2143      F2150   1.357       .  S
C2144      C2145   1.405       .  A
C2144      H2149   1.083       .  S
C2145      C2146   1.409       .  A
C2146      F2147   1.357       .  S
C2151      C2152   1.407       .  A
C2151      C2156   1.405       .  A
C2151      H2158   1.083       .  S
C2152      C2153   1.406       .  A
C2153      C2154   1.398       .  A
C2153      F2160   1.357       .  S
C2154      C2155   1.405       .  A
C2154      H2159   1.083       .  S
C2155      C2156   1.407       .  A
C2156      F2157   1.357       .  S
C2161      C2162   1.405       .  A
C2161      C2166   1.397       .  A
C2161      H2168   1.083       .  S
C2162      C2163   1.408       .  A
C2163      C2164   1.400       .  A
C2163      F2170   1.357       .  S
C2164      C2165   1.405       .  A
C2164      H2169   1.083       .  S
C2165      C2166   1.405       .  A
C2166      F2167   1.357       .  S
C2171      C2172   1.403       .  A
C2171      C2176   1.397       .  A
C2171      H2178   1.083       .  S
C2172      C2173   1.407       .  A
C2173      C2174   1.400       .  A
C2173      F2180   1.357       .  S
C2174      C2175   1.403       .  A
C2174      H2179   1.083       .  S
C2175      C2176   1.407       .  A
C2176      F2177   1.358       .  S
C2181      C2182   1.403       .  A
C2181      C2186   1.396       .  A
C2181      H2188   1.083       .  S
C2182      C2183   1.408       .  A
C2183      C2184   1.400       .  A
C2183      F2190   1.357       .  S
C2184      C2185   1.404       .  A
C2184      H2189   1.083       .  S
C2185      C2186   1.406       .  A
C2186      F2187   1.357       .  S
C2191      C2192   1.404       .  A
C2191      C2196   1.397       .  A
C2191      H2198   1.083       .  S
C2192      C2193   1.408       .  A
C2193      C2194   1.397       .  A
C2193      F2200   1.357       .  S
C2194      C2195   1.403       .  A
C2194      H2199   1.083       .  S
C2195      C2196   1.405       .  A
C2196      F2197   1.357       .  S
C2201      C2202   1.402       .  A
C2201      C2206   1.393       .  A
C2201      H2208   1.083       .  S
C2202      C2203   1.407       .  A
C2203      C2204   1.401       .  A
C2203      F2210   1.357       .  S
C2204      C2205   1.405       .  A
C2204      H2209   1.083       .  S
C2205      C2206   1.406       .  A
C2206      F2207   1.357       .  S
C2211      C2212   1.404       .  A
C2211      C2216   1.395       .  A
C2211      H2218   1.083       .  S
C2212      C2213   1.406       .  A
C2213      C2214   1.398       .  A
C2213      F2220   1.357       .  S
C2214      C2215   1.404       .  A
C2214      H2219   1.083       .  S
C2215      C2216   1.406       .  A
C2216      F2217   1.357       .  S
C2221      C2222   1.402       .  A
C2221      C2226   1.400       .  A
C2221      H2228   1.083       .  S
C2222      C2223   1.404       .  A
C2223      C2224   1.399       .  A
C2223      F2230   1.358       .  S
C2224      C2225   1.407       .  A
C2224      H2229   1.083       .  S
C2225      C2226   1.410       .  A
C2226      F2227   1.357       .  S
C2231      C2232   1.403       .  A
C2231      C2236   1.397       .  A
C2231      H2238   1.083       .  S
C2232      C2233   1.406       .  A
C2233      C2234   1.396       .  A
C2233      F2240   1.357       .  S
C2234      C2235   1.404       .  A
C2234      H2239   1.083       .  S
C2235      C2236   1.407       .  A
C2236      F2237   1.357       .  S
C2241      C2242   1.404       .  A
C2241      C2246   1.397       .  A
C2241      H2248   1.083       .  S
C2242      C2243   1.407       .  A
C2243      C2244   1.397       .  A
C2243      F2250   1.357       .  S
C2244      C2245   1.403       .  A
C2244      H2249   1.083       .  S
C2245      C2246   1.404       .  A
C2246      F2247   1.357       .  S
C2251      C2252   1.402       .  A
C2251      C2256   1.395       .  A
C2251      H2258   1.083       .  S
C2252      C2253   1.404       .  A
C2253      C2254   1.398       .  A
C2253      F2260   1.357       .  S
C2254      C2255   1.403       .  A
C2254      H2259   1.083       .  S
C2255      C2256   1.405       .  A
C2256      F2257   1.358       .  S
C2261      C2262   1.405       .  A
C2261      C2266   1.398       .  A
C2261      H2268   1.082       .  S
C2262      C2263   1.408       .  A
C2263      C2264   1.396       .  A
C2263      F2270   1.357       .  S
C2264      C2265   1.403       .  A
C2264      H2269   1.083       .  S
C2265      C2266   1.405       .  A
C2266      F2267   1.357       .  S
C2271      C2272   1.404       .  A
C2271      C2276   1.399       .  A
C2271      H2278   1.083       .  S
C2272      C2273   1.405       .  A
C2273      C2274   1.396       .  A
C2273      F2280   1.357       .  S
C2274      C2275   1.404       .  A
C2274      H2279   1.083       .  S
C2275      C2276   1.405       .  A
C2276      F2277   1.357       .  S
