geometry optimzed in LAMMPS
_audit_creation_date              2020-11-30 
_audit_creation_method            'lammps2cif' 
_symmetry_space_group_name_H-M    'P1' 
_symmetry_Int_Tables_number       1 
_symmetry_cell_setting            triclinic 
loop_ 
_symmetry_equiv_pos_as_xyz 
  x,y,z 
_cell_length_a                    28.77711873 
_cell_length_b                    39.55340402147317 
_cell_length_c                    26.353285500026928 
_cell_angle_alpha                 90.25907998284609 
_cell_angle_beta                  89.93755493916593 
_cell_angle_gamma                 89.95575851032262 
loop_ 
_atom_site_label 
_atom_site_type_symbol 
_atom_site_fract_x 
_atom_site_fract_y 
_atom_site_fract_z 
_atom_site_charge 
C1          C  0.29590789  0.54237653  0.75091255     0.03000
C2          C  0.31867058  0.56789362  0.77835428    -0.13100
C3          C  0.29843864  0.58196836  0.82190417     0.00500
C4          C  0.25612368  0.56898550  0.83963493    -0.11700
C5          C  0.23381911  0.54224841  0.81432279     0.03000
C6          C  0.25338276  0.52966974  0.76899361    -0.11100
H7          H  0.35177705  0.57737477  0.76492272     0.08600
H8          H  0.23972712  0.58053632  0.87243921     0.06100
H9          H  0.23502133  0.51061110  0.74734440     0.06000
C10         C  0.57883733  0.41155172  0.12927323     0.03000
C11         C  0.62203284  0.42391017  0.11327511    -0.13100
C12         C  0.64272066  0.41112210  0.06900688     0.00500
C13         C  0.61945872  0.38664658  0.04005864    -0.11700
C14         C  0.57669765  0.37376333  0.05624226     0.03000
C15         C  0.55613241  0.38658161  0.10062327    -0.11100
H16         H  0.64016035  0.44256562  0.13608150     0.08600
H17         H  0.63561957  0.37653511  0.00603758     0.06100
H18         H  0.52333103  0.37637394  0.11374941     0.06000
Zn19       Zn  0.45132699  0.51941534  0.47709305     1.49700
Zn20       Zn  0.41516706  0.49037017  0.37107725     1.49400
Zn21       Zn  0.49158066  0.44882043  0.43324417     1.49100
Zn22       Zn  0.38807017  0.45338847  0.47422891     1.49500
O23         O  0.43669741  0.47810569  0.43888385    -1.84300
O24         O  0.44401762  0.56147272  0.43388661    -0.74900
O25         O  0.45709882  0.47071358  0.31753664    -0.74700
O26         O  0.54502085  0.46917646  0.47157745    -0.74200
O27         O  0.41786686  0.54045100  0.36100165    -0.74900
O28         O  0.51739532  0.51750988  0.50206416    -0.74500
O29         O  0.51143416  0.44305301  0.36018824    -0.75100
O30         O  0.40925907  0.40726844  0.49449382    -0.74500
O31         O  0.34971910  0.47384601  0.35769304    -0.75200
O32         O  0.48015936  0.40234746  0.46279172    -0.74600
O33         O  0.33311901  0.44629724  0.42888603    -0.75100
O34         O  0.36765648  0.47741749  0.53791906    -0.75000
O35         O  0.41027770  0.52415569  0.53884567    -0.74800
C36         C  0.43066946  0.56540324  0.38819594     0.77000
C37         C  0.49415297  0.45315492  0.31841277     0.77500
C38         C  0.55041438  0.49623382  0.49720358     0.76500
C39         C  0.44584834  0.38992490  0.48688065     0.76800
C40         C  0.32254075  0.45569132  0.38426153     0.78000
C41         C  0.37936610  0.50529584  0.55853578     0.77000
C42         C  0.38084689  0.73270919  0.00177265     0.80100
N43         N  0.37442648  0.70280733  0.97720859    -0.78200
C44         C  0.36181240  0.70174864  0.92770386     0.82500
N45         N  0.35589217  0.73128737  0.90249088    -0.78200
C46         C  0.36266679  0.76149923  0.92595689     0.82600
N47         N  0.37475517  0.76196915  0.97579612    -0.79900
C48         C  0.42565604  0.75722248  0.29711253     0.80100
N49         N  0.42640628  0.72717043  0.32194080    -0.78200
C50         C  0.42159785  0.69771642  0.29564785     0.82500
N51         N  0.41593771  0.69875089  0.24451864    -0.78200
C52         C  0.41519484  0.72852430  0.21923076     0.82600
N53         N  0.42029157  0.75767829  0.24592912    -0.79900
C54         C  0.30106036  0.92080386  0.75151851     0.03000
C55         C  0.32310319  0.89576983  0.78021605    -0.13100
C56         C  0.30173420  0.88259234  0.82368015     0.00500
C57         C  0.25811990  0.89509731  0.83855540    -0.11700
C58         C  0.23599472  0.92044740  0.81048382     0.03000
C59         C  0.25749613  0.93326469  0.76677734    -0.11100
H60         H  0.35629088  0.88576378  0.76767224     0.08600
H61         H  0.24044240  0.88423613  0.87095284     0.06100
H62         H  0.23984374  0.95202764  0.74396432     0.06000
C63         C  0.56905798  0.03269829  0.11746206     0.03000
C64         C  0.61036191  0.01835050  0.09879832    -0.13100
C65         C  0.63188536  0.03145991  0.05527757     0.00500
C66         C  0.61128435  0.05893447  0.03029294    -0.11700
C67         C  0.56914142  0.07268036  0.04747864     0.03000
C68         C  0.54889351  0.05997829  0.09180962    -0.11100
H69         H  0.62635516  0.99755631  0.11896732     0.08600
H70         H  0.62923879  0.07065395  0.99881072     0.06100
H71         H  0.51832683  0.07223925  0.10734126     0.06000
Zn72       Zn  0.46662607  0.99084690  0.50614507     1.49700
Zn73       Zn  0.49723125  0.95344965  0.40533898     1.49400
Zn74       Zn  0.39262074  0.94600428  0.44539155     1.49100
Zn75       Zn  0.42829451  0.01609059  0.39843008     1.49500
O76         O  0.44591004  0.97663418  0.43885200    -1.84300
O77         O  0.53198466  0.97516546  0.52140209    -0.74900
O78         O  0.47950330  0.90596852  0.38811548    -0.74700
O79         O  0.37483037  0.94023925  0.51882788    -0.74200
O80         O  0.55429605  0.95207625  0.44850141    -0.74900
O81         O  0.42408601  0.97308045  0.56072576    -0.74500
O82         O  0.40672234  0.90008207  0.41444759    -0.75100
O83         O  0.36070823  0.01431754  0.38030463    -0.74500
O84         O  0.51430195  0.97522547  0.33958821    -0.75200
O85         O  0.33604567  0.96501310  0.40996484    -0.74600
O86         O  0.46281708  0.01681320  0.33181213    -0.75100
O87         O  0.44080446  0.05988329  0.43655787    -0.75000
O88         O  0.46680306  0.04140935  0.51072055    -0.74800
C89         C  0.56274347  0.96082777  0.49404832     0.77000
C90         C  0.44284727  0.88833085  0.39252544     0.77500
C91         C  0.38944591  0.95302694  0.56026899     0.76500
C92         C  0.32881501  0.99242516  0.38603524     0.76800
C93         C  0.49651597  0.99935814  0.31458207     0.78000
C94         C  0.45600490  0.06558486  0.48120978     0.77000
C95         C  0.45439432  0.25700653  0.57676812     0.80100
N96         N  0.45768656  0.25669224  0.62807643    -0.78200
C97         C  0.46354906  0.22733807  0.65359638     0.82500
N98         N  0.46619303  0.19802634  0.62672550    -0.78200
C99         C  0.46333339  0.19784005  0.57523435     0.82600
N100        N  0.45744839  0.22754160  0.55019168    -0.79900
C101        C  0.49535471  0.22464444  0.87201409     0.80100
N102        N  0.50436296  0.25428095  0.89676656    -0.78200
C103        C  0.51569853  0.25449477  0.94686198     0.82500
N104        N  0.51825754  0.22464073  0.97174878    -0.78200
C105        C  0.50936550  0.19490550  0.94813717     0.82600
N106        N  0.49815512  0.19513855  0.89812295    -0.79900
C107        C  0.07853517  0.40810880  0.25366994     0.03000
C108        C  0.05644169  0.38392336  0.28419184    -0.13100
C109        C  0.07795632  0.37152708  0.32809832     0.00500
C110        C  0.12100771  0.38501436  0.34280457    -0.11700
C111        C  0.14312150  0.41001477  0.31367195     0.03000
C112        C  0.12181332  0.42111712  0.26877471    -0.11100
H113        H  0.02276964  0.37412570  0.27316015     0.08600
H114        H  0.13813561  0.37524061  0.37624161     0.06100
H115        H  0.13964962  0.43895749  0.24453683     0.06000
C116        C  0.79620398  0.53231183  0.63137894     0.03000
C117        C  0.75205126  0.52097456  0.61692896    -0.13100
C118        C  0.73132045  0.53351252  0.57289778     0.00500
C119        C  0.75514718  0.55688246  0.54281188    -0.11700
C120        C  0.79987761  0.56784394  0.55622229     0.03000
C121        C  0.82034272  0.55517923  0.60060314    -0.11100
H122        H  0.73342027  0.50314638  0.64051977     0.08600
H123        H  0.73803038  0.56729604  0.50977240     0.06100
H124        H  0.85446701  0.56385517  0.61214102     0.06000
Zn125      Zn  0.88156655  0.50117646  0.93577614     1.49700
Zn126      Zn  0.98583282  0.50210700  0.97871478     1.49400
Zn127      Zn  0.92525934  0.43373657  0.98169933     1.49100
Zn128      Zn  0.96229848  0.46249325  0.87652876     1.49500
O129        O  0.93883709  0.47493159  0.94343725    -1.84300
O130        O  0.88863638  0.54781722  0.96482716    -0.74900
O131        O  0.00412055  0.47987217  0.04508460    -0.74700
O132        O  0.85825187  0.43282760  0.00420304    -0.74200
O133        O  0.96140680  0.54918646  0.99329094    -0.74900
O134        O  0.82807928  0.47958058  0.97207520    -0.74500
O135        O  0.96480903  0.43154479  0.04423996    -0.75100
O136        O  0.96280980  0.41219321  0.86727762    -0.74500
O137        O  0.04387891  0.50738120  0.93594660    -0.75200
O138        O  0.93675661  0.39140175  0.94002962    -0.74600
O139        O  0.02672346  0.48049286  0.86440701    -0.75100
O140        O  0.92124214  0.48033144  0.82163940    -0.75000
O141        O  0.86351011  0.50559141  0.86242146    -0.74800
C142        C  0.92214410  0.56327807  0.98611405     0.77000
C143        C  0.99362049  0.45162381  0.06524506     0.77500
C144        C  0.82379352  0.45256383  0.99759861     0.76500
C145        C  0.95139671  0.38718419  0.89482947     0.76800
C146        C  0.05469052  0.49792998  0.89114897     0.78000
C147        C  0.88288846  0.49626691  0.82121351     0.77000
C148        C  0.96323479  0.25503278  0.79961984     0.80100
N149        N  0.95824538  0.22573418  0.82602791    -0.78200
C150        C  0.96237229  0.19542017  0.80174412     0.82500
N151        N  0.97147157  0.19457788  0.75114370    -0.78200
C152        C  0.97744122  0.22357314  0.72461566     0.82600
N153        N  0.97318408  0.25350773  0.74931765    -0.79900
C154        C  0.00860196  0.21851864  0.50629629     0.80100
N155        N  0.01263070  0.24804977  0.48030461    -0.78200
C156        C  0.02324056  0.24812440  0.43001509     0.82500
N157        N  0.03038531  0.21814406  0.40610702    -0.78200
C158        C  0.02667186  0.18837310  0.43122755     0.82600
N159        N  0.01596358  0.18885595  0.48138193    -0.79900
C160        C  0.08563520  0.03103115  0.24774711     0.03000
C161        C  0.12752357  0.01668189  0.26453723    -0.13100
C162        C  0.14713974  0.02715490  0.31081126     0.00500
C163        C  0.12562956  0.05286998  0.33906128    -0.11700
C164        C  0.08455246  0.06806744  0.32193221     0.03000
C165        C  0.06396143  0.05616922  0.27708866    -0.11100
H166        H  0.14462968  0.99740868  0.24188915     0.08600
H167        H  0.14230385  0.06220204  0.37322702     0.06100
H168        H  0.03159397  0.06713742  0.26409931     0.06000
C169        C  0.80498455  0.90961416  0.62293924     0.03000
C170        C  0.82313509  0.88294845  0.59378813    -0.13100
C171        C  0.80035991  0.87211056  0.54957864     0.00500
C172        C  0.75953463  0.88851955  0.53448187    -0.11700
C173        C  0.74263479  0.91652872  0.56160601     0.03000
C174        C  0.76530840  0.92683885  0.60611949    -0.11100
H175        H  0.85428468  0.87000317  0.60623631     0.08600
H176        H  0.73959622  0.87853474  0.50296880     0.06100
H177        H  0.75128245  0.94755078  0.62845530     0.06000
Zn178      Zn  0.91233050  0.96415144  0.00525266     1.49700
Zn179      Zn  0.88624850  0.99871979  0.90164622     1.49400
Zn180      Zn  0.99089154  0.00394858  0.94313970     1.49100
Zn181      Zn  0.95134105  0.93312703  0.90134043     1.49500
O182        O  0.93548305  0.97498719  0.93771145    -1.84300
O183        O  0.84668176  0.98071327  0.01728691    -0.74900
O184        O  0.90605899  0.04590561  0.88495399    -0.74700
O185        O  0.01113977  0.00859794  0.01669543    -0.74200
O186        O  0.82705165  0.00147720  0.94235751    -0.74900
O187        O  0.95474294  0.98277715  0.05872918    -0.74500
O188        O  0.97817312  0.05061918  0.91406271    -0.75100
O189        O  0.01888083  0.93332887  0.88038350    -0.74500
O190        O  0.87155944  0.97580156  0.83565967    -0.75200
O191        O  0.04516637  0.98353912  0.90430611    -0.74600
O192        O  0.91416230  0.92887634  0.83668812    -0.75100
O193        O  0.93974873  0.89175124  0.94464487    -0.75000
O194        O  0.91186400  0.91416276  0.01570933    -0.74800
C195        C  0.81679832  0.99414704  0.98801055     0.77000
C196        C  0.94302160  0.06304361  0.89127829     0.77500
C197        C  0.99296475  0.99892510  0.05835718     0.76500
C198        C  0.05149075  0.95505017  0.88248213     0.76800
C199        C  0.88513891  0.94838250  0.81505536     0.78000
C200        C  0.92411855  0.88853623  0.98963918     0.77000
C201        C  0.86481607  0.71727108  0.37159488     0.80100
N202        N  0.85770207  0.74658345  0.39755419    -0.78200
C203        C  0.84964215  0.74656495  0.44832438     0.82500
N204        N  0.84853525  0.71655431  0.47301014    -0.78200
C205        C  0.85571317  0.68693534  0.44796072     0.82600
N206        N  0.86335953  0.68746544  0.39705599    -0.79900
C207        C  0.90224505  0.69542493  0.07520416     0.80100
N208        N  0.89375669  0.69457132  0.12584239    -0.78200
C209        C  0.89082734  0.72352798  0.15330144     0.82500
N210        N  0.89624640  0.75354626  0.12941684    -0.78200
C211        C  0.90452096  0.75505807  0.07867258     0.82600
N212        N  0.90788967  0.72570444  0.05172430    -0.79900
C213        C  0.85771516  0.74707243  0.28883065    -0.26400
C214        C  0.87174891  0.71816216  0.31568175    -0.14500
C215        C  0.89193668  0.69100644  0.28850013     0.36100
C216        C  0.89716489  0.69314641  0.23566067    -0.25900
C217        C  0.88333824  0.72214066  0.20897459    -0.15100
C218        C  0.86329856  0.74931174  0.23611717     0.37200
N219        N  0.84762592  0.77903583  0.21038288    -0.89400
H220        H  0.84176062  0.76814738  0.30867282     0.18300
H221        H  0.91312639  0.67215403  0.21561567     0.18300
N222        N  0.90838216  0.66153019  0.31427605    -0.88400
H223        H  0.86521072  0.79984977  0.22562924     0.35700
H224        H  0.81217455  0.78211032  0.21782823     0.40800
H225        H  0.94385194  0.65885518  0.30658120     0.40400
H226        H  0.89117696  0.64047996  0.29925148     0.35300
C227        C  0.91515850  0.82601268  0.98072861    -0.26400
C228        C  0.92020007  0.85440121  0.01243676    -0.14500
C229        C  0.92097776  0.84984481  0.06559413     0.36100
C230        C  0.91584123  0.81728620  0.08559836    -0.25900
C231        C  0.91012966  0.78875240  0.05412816    -0.15100
C232        C  0.90959832  0.79332403  0.00081750     0.37200
N233        N  0.90263416  0.76511219  0.96710357    -0.89400
H234        H  0.91432728  0.82943713  0.93997130     0.18300
H235        H  0.91681149  0.81431733  0.12641315     0.18300
N236        N  0.92765099  0.87816437  0.09928406    -0.88400
H237        H  0.90472347  0.77275043  0.92923817     0.35700
H238        H  0.86867496  0.75646884  0.97258242     0.40800
H239        H  0.96117273  0.88747841  0.09311037     0.40400
H240        H  0.92636134  0.87055261  0.13720506     0.35300
C241        C  0.84572570  0.95126094  0.67749569    -0.26400
C242        C  0.82653983  0.91893730  0.67185456    -0.14500
C243        C  0.82698541  0.89644846  0.71337191     0.36100
C244        C  0.84718990  0.90654561  0.75918367    -0.25900
C245        C  0.86651416  0.93887583  0.76494142    -0.15100
C246        C  0.86637692  0.96146009  0.72319773     0.37200
N247        N  0.88749215  0.99443833  0.72507602    -0.89400
H248        H  0.84536122  0.96856693  0.64571107     0.18300
H249        H  0.84674958  0.88927517  0.79101496     0.18300
N250        N  0.80540428  0.86384223  0.71082782    -0.88400
H251        H  0.91305155  0.99518813  0.69686800     0.35700
H252        H  0.90509827  0.99863404  0.75903560     0.40800
H253        H  0.82229893  0.84921657  0.68337308     0.40400
H254        H  0.77072865  0.86701836  0.70002766     0.35300
C255        C  0.81886386  0.81112295  0.55140428    -0.26400
C256        C  0.81570415  0.84092876  0.52320598    -0.14500
C257        C  0.82624336  0.84000549  0.47083056     0.36100
C258        C  0.83797660  0.80924614  0.44772135    -0.25900
C259        C  0.83966795  0.77893779  0.47554515    -0.15100
C260        C  0.83067610  0.78033731  0.52836854     0.37200
N261        N  0.83311822  0.75072351  0.55918389    -0.89400
H262        H  0.81117596  0.81157574  0.59169261     0.18300
H263        H  0.84536776  0.80921013  0.40740649     0.18300
N264        N  0.82665485  0.86991297  0.44038160    -0.88400
H265        H  0.80077056  0.74722348  0.57648490     0.35700
H266        H  0.85771295  0.75495448  0.58769231     0.40800
H267        H  0.84837681  0.88775071  0.45760504     0.40400
H268        H  0.79308325  0.87972336  0.43845810     0.35300
C269        C  0.01879907  0.00798582  0.19979023    -0.26400
C270        C  0.06414742  0.02070756  0.19912484    -0.14500
C271        C  0.08668362  0.02587197  0.15226766     0.36100
C272        C  0.06295444  0.01845310  0.10684521    -0.25900
C273        C  0.01702822  0.00612384  0.10730725    -0.15100
C274        C  0.99516187  0.00053252  0.15469993     0.37200
N275        N  0.94867336  0.98774558  0.15759914    -0.89400
H276        H  0.00133986  0.00412199  0.23577594     0.18300
H277        H  0.08039108  0.02258297  0.07096062     0.18300
N278        N  0.13308605  0.03929872  0.15098503    -0.88400
H279        H  0.92837550  0.00531025  0.17746525     0.35700
H280        H  0.94931793  0.96530833  0.17842408     0.40800
H281        H  0.13187991  0.06382182  0.16591253     0.40400
H282        H  0.14476383  0.04145491  0.11355487     0.35300
C283        C  0.06203578  0.09716582  0.40251982    -0.26400
C284        C  0.06527713  0.09778572  0.34938410    -0.14500
C285        C  0.05343423  0.12769019  0.32351120     0.36100
C286        C  0.03875259  0.15613324  0.35093175    -0.25900
C287        C  0.03720558  0.15612519  0.40424984    -0.15100
C288        C  0.04863779  0.12598661  0.43014739     0.37200
N289        N  0.04842928  0.12463511  0.48443381    -0.89400
H290        H  0.07106100  0.07435234  0.42291108     0.18300
H291        H  0.02979917  0.17867909  0.33003063     0.18300
N292        N  0.05851498  0.12996986  0.26953938    -0.88400
H293        H  0.08183863  0.11815249  0.49656790     0.35700
H294        H  0.02571325  0.10541501  0.49553437     0.40800
H295        H  0.08179449  0.14953630  0.26161004     0.40400
H296        H  0.02624371  0.13643160  0.25416732     0.35300
C297        C  0.97463728  0.12192895  0.89323823    -0.26400
C298        C  0.94545251  0.09779436  0.87031645    -0.14500
C299        C  0.92002558  0.10684503  0.82645351     0.36100
C300        C  0.92504767  0.13938575  0.80624807    -0.25900
C301        C  0.95469785  0.16322181  0.82863939    -0.15100
C302        C  0.97919221  0.15471179  0.87311052     0.37200
N303        N  0.01027290  0.17869298  0.89615818    -0.89400
H304        H  0.99409686  0.11514500  0.92686552     0.18300
H305        H  0.90639894  0.14602852  0.77198430     0.18300
N306        N  0.89046271  0.08268810  0.80137963    -0.88400
H307        H  0.02744740  0.16781052  0.92698611     0.35700
H308        H  0.99009867  0.19837005  0.91102349     0.40800
H309        H  0.91175361  0.06358144  0.78665300     0.40400
H310        H  0.87364717  0.09365867  0.77038326     0.35300
C311        C  0.98024189  0.19192068  0.64233402    -0.26400
C312        C  0.98640958  0.22250084  0.66888771    -0.14500
C313        C  0.99999965  0.25148495  0.64139144     0.36100
C314        C  0.00616260  0.24948290  0.58874319    -0.25900
C315        C  0.99965152  0.21904378  0.56203498    -0.15100
C316        C  0.98632329  0.18983975  0.58942976     0.37200
N317        N  0.97835384  0.15822600  0.56375458    -0.89400
H318        H  0.96969261  0.16948129  0.66272392     0.18300
H319        H  0.01694192  0.27208496  0.56887324     0.18300
N320        N  0.00849081  0.28306618  0.66651786    -0.88400
H321        H  0.94909669  0.16125454  0.54072616     0.35700
H322        H  0.97026086  0.13913908  0.58961805     0.40800
H323        H  0.98648411  0.30124653  0.65074819     0.40400
H324        H  0.04278935  0.29025352  0.65914351     0.35300
C325        C  0.94555035  0.62381790  0.99092168    -0.26400
C326        C  0.91464747  0.59799616  0.00465608    -0.14500
C327        C  0.87773084  0.60516997  0.03796936     0.36100
C328        C  0.87357338  0.63751431  0.05915402    -0.25900
C329        C  0.90519185  0.66321105  0.04688451    -0.15100
C330        C  0.94085623  0.65663932  0.01129328     0.37200
N331        N  0.97296045  0.68282497  0.99730695    -0.89400
H332        H  0.97364264  0.61821723  0.96477807     0.18300
H333        H  0.84586163  0.64240830  0.08610972     0.18300
N334        N  0.84557637  0.57921106  0.05209517    -0.88400
H335        H  0.99665203  0.67386942  0.97029305     0.35700
H336        H  0.99226675  0.68914101  0.02956371     0.40800
H337        H  0.81214079  0.58733050  0.04253173     0.40400
H338        H  0.84694760  0.57641248  0.09150012     0.35300
C339        C  0.94434561  0.34928971  0.82046475    -0.26400
C340        C  0.95366440  0.35282007  0.87239406    -0.14500
C341        C  0.96409572  0.32379410  0.90126336     0.36100
C342        C  0.96600456  0.29195049  0.87708511    -0.25900
C343        C  0.95764732  0.28856009  0.82472811    -0.15100
C344        C  0.94528544  0.31761272  0.79650949     0.37200
N345        N  0.93280228  0.31493675  0.74380162    -0.89400
H346        H  0.93516639  0.37141372  0.79850448     0.18300
H347        H  0.97520859  0.26983946  0.89901554     0.18300
N348        N  0.97376982  0.32679904  0.95459288    -0.88400
H349        H  0.92531458  0.33869448  0.72859432     0.35700
H350        H  0.90212748  0.30085225  0.74164584     0.40800
H351        H  0.00427383  0.34091174  0.95852593     0.40400
H352        H  0.98049664  0.30305905  0.97027080     0.35300
C353        C  0.82050147  0.52496615  0.77188954    -0.26400
C354        C  0.86029801  0.50426509  0.77203002    -0.14500
C355        C  0.87773486  0.49195934  0.72515169     0.36100
C356        C  0.85580280  0.50101427  0.67974247    -0.25900
C357        C  0.81648559  0.52180385  0.68003789    -0.15100
C358        C  0.79865358  0.53387867  0.72658467     0.37200
N359        N  0.75939181  0.55615154  0.72880578    -0.89400
H360        H  0.80648197  0.53481360  0.80715675     0.18300
H361        H  0.86967145  0.49185210  0.64396702     0.18300
N362        N  0.91760143  0.47027682  0.72315297    -0.88400
H363        H  0.73065542  0.54378705  0.71323252     0.35700
H364        H  0.76665212  0.57748623  0.70690528     0.40800
H365        H  0.94291612  0.48193478  0.70076739     0.40400
H366        H  0.90792993  0.44769413  0.70530512     0.35300
C367        C  0.83572766  0.62550261  0.44808435    -0.26400
C368        C  0.85012198  0.65437304  0.47511108    -0.14500
C369        C  0.85522966  0.65223725  0.52828303     0.36100
C370        C  0.84086249  0.62309745  0.55374431    -0.25900
C371        C  0.82243965  0.59541398  0.52716853    -0.15100
C372        C  0.82231268  0.59589650  0.47356833     0.37200
N373        N  0.80780493  0.56656503  0.44535314    -0.89400
H374        H  0.83304919  0.62639877  0.40711521     0.18300
H375        H  0.84218675  0.62287569  0.59483194     0.18300
N376        N  0.87468489  0.67962086  0.55688111    -0.88400
H377        H  0.80969590  0.57107482  0.40634285     0.35700
H378        H  0.83142874  0.54716951  0.45308156     0.40800
H379        H  0.90436762  0.67069350  0.57534660     0.40400
H380        H  0.85060968  0.68661607  0.58475563     0.35300
C381        C  0.01868816  0.40657964  0.12490308    -0.26400
C382        C  0.01566523  0.44121868  0.11366789    -0.14500
C383        C  0.03384832  0.46487971  0.14862546     0.36100
C384        C  0.05422941  0.45359341  0.19387941    -0.25900
C385        C  0.05713016  0.41898070  0.20508114    -0.15100
C386        C  0.03984185  0.39517863  0.16967669     0.37200
N387        N  0.04476153  0.35951463  0.17869770    -0.89400
H388        H  0.00544880  0.38816417  0.09801808     0.18300
H389        H  0.06733462  0.47207122  0.22076578     0.18300
N390        N  0.03083571  0.50042151  0.13901591    -0.88400
H391        H  0.03012239  0.34546059  0.14907051     0.35700
H392        H  0.08028844  0.35395809  0.17883936     0.40800
H393        H  0.06452381  0.51030506  0.13925440     0.40400
H394        H  0.01232682  0.51166015  0.16880843     0.35300
C395        C  0.04326639  0.30953604  0.43184838    -0.26400
C396        C  0.03180257  0.28063922  0.40304943    -0.14500
C397        C  0.03088898  0.28346221  0.34933015     0.36100
C398        C  0.04398694  0.31373794  0.32631930    -0.25900
C399        C  0.05823394  0.34179906  0.35505043    -0.15100
C400        C  0.05631869  0.34003271  0.40850189     0.37200
N401        N  0.06786417  0.36911276  0.43886755    -0.89400
H402        H  0.04339819  0.30817621  0.47288835     0.18300
H403        H  0.04496176  0.31476321  0.28523408     0.18300
N404        N  0.01709684  0.25625434  0.31665511    -0.88400
H405        H  0.06482796  0.36362094  0.47750097     0.35700
H406        H  0.04337011  0.38791027  0.43104709     0.40800
H407        H  0.98474794  0.24718294  0.32846656     0.40400
H408        H  0.04199926  0.23711393  0.31840024     0.35300
C409        C  0.47483553  0.19608728  0.73487309    -0.26400
C410        C  0.46892237  0.22714234  0.70994557    -0.14500
C411        C  0.46972415  0.25718103  0.73934524     0.36100
C412        C  0.47768433  0.25557434  0.79180037    -0.25900
C413        C  0.48479041  0.22458848  0.81652674    -0.15100
C414        C  0.48271298  0.19447131  0.78733060     0.37200
N415        N  0.48929272  0.16203135  0.81018993    -0.89400
H416        H  0.47401258  0.17260751  0.71356405     0.18300
H417        H  0.47854614  0.27903882  0.81313021     0.18300
N418        N  0.46290414  0.28958765  0.71646764    -0.88400
H419        H  0.51755412  0.15022391  0.79250223     0.35700
H420        H  0.45967068  0.14744409  0.80323091     0.40800
H421        H  0.49223614  0.30440340  0.72379737     0.40400
H422        H  0.43429458  0.30113635  0.73386240     0.35300
C423        C  0.43846572  0.16021600  0.50372214    -0.26400
C424        C  0.46571636  0.16527335  0.54730668    -0.14500
C425        C  0.49296506  0.13832359  0.56556893     0.36100
C426        C  0.49036318  0.10654275  0.54221699    -0.25900
C427        C  0.46107844  0.10076667  0.50044995    -0.15100
C428        C  0.43575525  0.12822590  0.48029495     0.37200
N429        N  0.40580669  0.12356240  0.43746825    -0.89400
H430        H  0.41756735  0.18075860  0.48903217     0.18300
H431        H  0.51108171  0.08610367  0.55753115     0.18300
N432        N  0.52363895  0.14310942  0.60778594    -0.88400
H433        H  0.41643774  0.14017133  0.40897825     0.35700
H434        H  0.37205772  0.13023977  0.44833473     0.40800
H435        H  0.55736112  0.13711281  0.59596997     0.40400
H436        H  0.51413694  0.12610942  0.63623478     0.35300
C437        C  0.24277365  0.99147510  0.39379486    -0.26400
C438        C  0.28225598  0.99912631  0.36467733    -0.14500
C439        C  0.27643021  0.01324389  0.31579263     0.36100
C440        C  0.23178173  0.02008227  0.29776718    -0.25900
C441        C  0.19258195  0.01407131  0.32789235    -0.15100
C442        C  0.19792097  0.99916992  0.37609484     0.37200
N443        N  0.15782910  0.99249000  0.40705723    -0.89400
H444        H  0.24703720  0.98045356  0.43108125     0.18300
H445        H  0.22777881  0.03163355  0.26079829     0.18300
N446        N  0.31505469  0.02068031  0.28336511    -0.88400
H447        H  0.16772773  0.98176632  0.44159574     0.35700
H448        H  0.13769660  0.97441522  0.38815110     0.40800
H449        H  0.33509211  0.99879714  0.27898875     0.40400
H450        H  0.33525092  0.03953868  0.30026382     0.35300
C451        C  0.64788682  0.95661949  0.48225433    -0.26400
C452        C  0.60943066  0.95377846  0.51481033    -0.14500
C453        C  0.61630713  0.94199030  0.56488348     0.36100
C454        C  0.66052068  0.93128480  0.57993436    -0.25900
C455        C  0.69830003  0.93233276  0.54629217    -0.15100
C456        C  0.69215418  0.94644484  0.49760209     0.37200
N457        N  0.73026101  0.95136853  0.46338338    -0.89400
H458        H  0.64339657  0.96647911  0.44425264     0.18300
H459        H  0.66502983  0.92083397  0.61756740     0.18300
N460        N  0.57886358  0.93899229  0.60042390    -0.88400
H461        H  0.74428155  0.92795601  0.45342412     0.35700
H462        H  0.75575586  0.96556287  0.48199998     0.40800
H463        H  0.55309582  0.92364500  0.58452425     0.40400
H464        H  0.56511879  0.96303633  0.60733795     0.35300
C465        C  0.71391111  0.01546804  0.07391245    -0.26400
C466        C  0.67791553  0.01860553  0.03832278    -0.14500
C467        C  0.68704499  0.01146156  0.98675986     0.36100
C468        C  0.73251306  0.00331644  0.97152608    -0.25900
C469        C  0.76906208  0.00142933  0.00679732    -0.15100
C470        C  0.75937239  0.00703595  0.05881914     0.37200
N471        N  0.79580830  0.00528050  0.09600880    -0.89400
H472        H  0.70694918  0.02100932  0.11350278     0.18300
H473        H  0.73939870  0.99830609  0.93176721     0.18300
N474        N  0.65008483  0.01246904  0.95010769    -0.88400
H475        H  0.78258126  0.00935386  0.13250161     0.35700
H476        H  0.81885094  0.02512619  0.08885032     0.40800
H477        H  0.62629663  0.99354783  0.95958383     0.40400
H478        H  0.66256497  0.00662798  0.91383639     0.35300
C479        C  0.57918719  0.02364531  0.20970601    -0.26400
C480        C  0.55009486  0.02200126  0.16701888    -0.14500
C481        C  0.50342622  0.01141393  0.17303195     0.36100
C482        C  0.48636503  0.00459664  0.22165722    -0.25900
C483        C  0.51533643  0.00704049  0.26421222    -0.15100
C484        C  0.56224033  0.01593898  0.25811252     0.37200
N485        N  0.59236912  0.01801247  0.30124128    -0.89400
H486        H  0.61504317  0.03156263  0.20557536     0.18300
H487        H  0.45052868  0.99671928  0.22618146     0.18300
N488        N  0.47331193  0.00587207  0.13051908    -0.88400
H489        H  0.60553202  0.04261048  0.30330677     0.35700
H490        H  0.62026623  0.00152878  0.29516432     0.40800
H491        H  0.48968675  0.98914028  0.10539856     0.40400
H492        H  0.46743811  0.02869925  0.11195004     0.35300
C493        C  0.54017790  0.13174548  0.05110018    -0.26400
C494        C  0.54872643  0.10255889  0.02218529    -0.14500
C495        C  0.53759682  0.10257233  0.96994035     0.36100
C496        C  0.52252389  0.13245849  0.94702810    -0.25900
C497        C  0.51746267  0.16252398  0.97519806    -0.15100
C498        C  0.52398687  0.16143887  0.02838650     0.37200
N499        N  0.51424780  0.19029635  0.05970353    -0.89400
H500        H  0.54700280  0.13175359  0.09154578     0.18300
H501        H  0.51610498  0.13222728  0.90654677     0.18300
N502        N  0.53999664  0.07251216  0.93948243    -0.88400
H503        H  0.54458525  0.19673352  0.07928020     0.35700
H504        H  0.48911005  0.18339107  0.08638864     0.40800
H505        H  0.52018822  0.05371673  0.95697033     0.40400
H506        H  0.57439359  0.06435425  0.93706682     0.35300
C507        C  0.15160398  0.90905207  0.81574751    -0.26400
C508        C  0.18860889  0.93112078  0.82509968    -0.14500
C509        C  0.18049346  0.96177479  0.85084953     0.36100
C510        C  0.13531430  0.96941584  0.86799956    -0.25900
C511        C  0.09797250  0.94693155  0.86001794    -0.15100
C512        C  0.10628244  0.91671688  0.83212507     0.37200
N513        N  0.06901710  0.89374978  0.82056916    -0.89400
H514        H  0.15828108  0.88558403  0.79561340     0.18300
H515        H  0.12959744  0.99275710  0.88873049     0.18300
N516        N  0.21830943  0.98468611  0.86023766    -0.88400
H517        H  0.08148604  0.87234122  0.80150282     0.35700
H518        H  0.04674135  0.90600439  0.79527792     0.40800
H519        H  0.24167184  0.97262550  0.88455556     0.40400
H520        H  0.20652615  0.00626024  0.87938587     0.35300
C521        C  0.30579394  0.91598143  0.65810072    -0.26400
C522        C  0.32192797  0.93105752  0.70285513    -0.14500
C523        C  0.35996464  0.95339541  0.70086744     0.36100
C524        C  0.38120998  0.96022043  0.65423212    -0.25900
C525        C  0.36558481  0.94490802  0.60896156    -0.15100
C526        C  0.32722202  0.92252608  0.61132356     0.37200
N527        N  0.31000314  0.90602490  0.56665453    -0.89400
H528        H  0.27692368  0.89841996  0.65964406     0.18300
H529        H  0.41033631  0.97755206  0.65365565     0.18300
N530        N  0.37754400  0.96951889  0.74567129    -0.88400
H531        H  0.27500180  0.91251137  0.56235552     0.35700
H532        H  0.31197929  0.87990575  0.57223282     0.40800
H533        H  0.38827256  0.95083023  0.77101247     0.40400
H534        H  0.35045196  0.98317990  0.76251493     0.35300
C535        C  0.46077082  0.81399739  0.30275510    -0.26400
C536        C  0.43209190  0.78944972  0.32459920    -0.14500
C537        C  0.40868429  0.79675141  0.37041979     0.36100
C538        C  0.41348675  0.82902548  0.39257933    -0.25900
C539        C  0.44173246  0.85386094  0.37022246    -0.15100
C540        C  0.46630892  0.84575914  0.32508236     0.37200
N541        N  0.49583265  0.86948582  0.29974262    -0.89400
H542        H  0.47906133  0.80846896  0.26768747     0.18300
H543        H  0.39471259  0.83494198  0.42716515     0.18300
N544        N  0.37913820  0.77184234  0.39340731    -0.88400
H545        H  0.52373558  0.87551571  0.32343631     0.35700
H546        H  0.47673842  0.89131375  0.29173072     0.40800
H547        H  0.35144614  0.76733064  0.36864040     0.40400
H548        H  0.36469003  0.78118798  0.42708562     0.35300
C549        C  0.34127787  0.82262282  0.92729012    -0.26400
C550        C  0.35261849  0.79356598  0.89885957    -0.14500
C551        C  0.35147600  0.79522337  0.84521255     0.36100
C552        C  0.33601243  0.82492841  0.82167671    -0.25900
C553        C  0.32245146  0.85326865  0.85027063    -0.15100
C554        C  0.32647801  0.85247980  0.90356645     0.37200
N555        N  0.31511432  0.88188876  0.93336477    -0.89400
H556        H  0.34260795  0.82185200  0.96833136     0.18300
H557        H  0.33326288  0.82563113  0.78068824     0.18300
N558        N  0.36556040  0.76676785  0.81469382    -0.88400
H559        H  0.31969247  0.87708126  0.97201953     0.35700
H560        H  0.33874629  0.90089068  0.92378820     0.40800
H561        H  0.40102353  0.76287034  0.82099633     0.40400
H562        H  0.36188373  0.77205095  0.77606212     0.35300
C563        C  0.40282203  0.70200983  0.08052269    -0.26400
C564        C  0.39180860  0.73282211  0.05702602    -0.14500
C565        C  0.38999927  0.76242444  0.08726654     0.36100
C566        C  0.39837732  0.76043685  0.13964024    -0.25900
C567        C  0.40834963  0.72942561  0.16322271    -0.17900
C568        C  0.41098653  0.69997991  0.13277104     0.37200
N569        N  0.42223560  0.66780281  0.15428351    -0.89400
H570        H  0.40512494  0.67896646  0.05837263     0.18300
H571        H  0.39619645  0.78343870  0.16199450     0.18300
N572        N  0.37890037  0.79456010  0.06554162    -0.88400
H573        H  0.45207596  0.65858531  0.13624901     0.35700
H574        H  0.39491817  0.65114566  0.14655476     0.40800
H575        H  0.40640868  0.81111222  0.07293450     0.40400
H576        H  0.34925433  0.80398743  0.08371807     0.35300
C577        C  0.41559363  0.62741275  0.39438893    -0.26400
C578        C  0.43039790  0.59952073  0.36549136    -0.14500
C579        C  0.44370963  0.60424670  0.31446396     0.36100
C580        C  0.44047175  0.63650786  0.29297581    -0.25900
C581        C  0.42459021  0.66442065  0.32127910    -0.15100
C582        C  0.41195004  0.65979184  0.37267600     0.37200
N583        N  0.39424093  0.68759070  0.40223235    -0.89400
H584        H  0.40531041  0.62367862  0.43353302     0.18300
H585        H  0.45102456  0.63988142  0.25385672     0.18300
N586        N  0.46112778  0.57633765  0.28481474    -0.88400
H587        H  0.38697937  0.67994256  0.43932941     0.35700
H588        H  0.36253899  0.69484295  0.38625261     0.40800
H589        H  0.49237707  0.56849092  0.30121644     0.40400
H590        H  0.46908685  0.58401550  0.24789792     0.35300
C591        C  0.41194850  0.34385561  0.53943227    -0.26400
C592        C  0.44791441  0.35489174  0.50723555    -0.14500
C593        C  0.48479624  0.33236749  0.49600607     0.36100
C594        C  0.48513093  0.29986678  0.51732505    -0.25900
C595        C  0.44992818  0.28960963  0.55060212    -0.15100
C596        C  0.41285868  0.31183126  0.56147751     0.37200
N597        N  0.37534546  0.30240476  0.59430350    -0.89400
H598        H  0.38310602  0.36043209  0.54855860     0.18300
H599        H  0.51391147  0.28298490  0.50919754     0.18300
N600        N  0.52223447  0.34230747  0.46349921    -0.88400
H601        H  0.38849385  0.29793995  0.63058523     0.35700
H602        H  0.36061451  0.28004998  0.58043116     0.40800
H603        H  0.52380559  0.32526466  0.43310241     0.40400
H604        H  0.55321872  0.34031455  0.48396623     0.35300
C605        C  0.67748279  0.49058578  0.53814022    -0.26400
C606        C  0.68414691  0.52293562  0.55846009    -0.14500
C607        C  0.64619683  0.54527109  0.56270140     0.36100
C608        C  0.60285005  0.53557437  0.54397554    -0.25900
C609        C  0.59617641  0.50375286  0.52096403    -0.15100
C610        C  0.63380004  0.48050554  0.51969941     0.37200
N611        N  0.62795026  0.44697606  0.49939132    -0.89400
H612        H  0.70674993  0.47337545  0.53586382     0.18300
H613        H  0.57446859  0.55351363  0.54657711     0.18300
N614        N  0.65073036  0.57788610  0.58607583    -0.88400
H615        H  0.60547799  0.43401568  0.52368501     0.35700
H616        H  0.65940327  0.43372302  0.49983712     0.40800
H617        H  0.67484704  0.59207438  0.56557781     0.40400
H618        H  0.66341946  0.57456708  0.62288647     0.35300
C619        C  0.24574825  0.46774420  0.34495365    -0.26400
C620        C  0.27811254  0.44414066  0.36275654    -0.14500
C621        C  0.26714216  0.40946134  0.36211558     0.36100
C622        C  0.22340300  0.39903171  0.34475945    -0.25900
C623        C  0.18990595  0.42257434  0.32883079    -0.15100
C624        C  0.20130403  0.45740560  0.32882299     0.37200
N625        N  0.16737954  0.48218728  0.31412764    -0.89400
H626        H  0.25449114  0.49438744  0.34572820     0.18300
H627        H  0.21539337  0.37227941  0.34373425     0.18300
N628        N  0.30064077  0.38497054  0.37901509    -0.88400
H629        H  0.18136458  0.50654366  0.31623643     0.35700
H630        H  0.14023145  0.48128801  0.34048484     0.40800
H631        H  0.32892827  0.38584272  0.35411941     0.40400
H632        H  0.28703168  0.36051556  0.37653707     0.35300
C633        C  0.69627175  0.45536453  0.03749789    -0.26400
C634        C  0.68963952  0.42212509  0.05393215    -0.14500
C635        C  0.72776358  0.39966898  0.05509868     0.36100
C636        C  0.77115517  0.41041286  0.03775343    -0.25900
C637        C  0.77772926  0.44331111  0.01901853    -0.15100
C638        C  0.73984305  0.46619281  0.02003080     0.37200
N639        N  0.74522922  0.50043187  0.00355494    -0.89400
H640        H  0.66724355  0.47284920  0.03737353     0.18300
H641        H  0.79971292  0.39254879  0.03818740     0.18300
N642        N  0.72361415  0.36601806  0.07454532    -0.88400
H643        H  0.73635777  0.51641645  0.03376332     0.35700
H644        H  0.72173221  0.50472476  0.97403642     0.40800
H645        H  0.70016390  0.35246242  0.05214860     0.40400
H646        H  0.71053621  0.36745028  0.11152696     0.35300
C647        C  0.54769208  0.41602551  0.26866135    -0.26400
C648        C  0.51729827  0.44388448  0.26990026    -0.14500
C649        C  0.50922406  0.46205635  0.22459388     0.36100
C650        C  0.52987678  0.45124917  0.17904905    -0.25900
C651        C  0.55893712  0.42289336  0.17795485    -0.15100
C652        C  0.56849381  0.40545841  0.22330262     0.37200
N653        N  0.59909303  0.37687983  0.22416555    -0.89400
H654        H  0.55479580  0.40193881  0.30296409     0.18300
H655        H  0.52312772  0.46502410  0.14436041     0.18300
N656        N  0.48079702  0.49180956  0.22467174    -0.88400
H657        H  0.63156371  0.38448644  0.21054782     0.35700
H658        H  0.58592786  0.35839642  0.19965442     0.40800
H659        H  0.45358090  0.48804927  0.19901485     0.40400
H660        H  0.50091362  0.51200100  0.21164928     0.35300
C661        C  0.54466250  0.28356722  0.02468250    -0.26400
C662        C  0.52820039  0.28623719  0.97449851    -0.14500
C663        C  0.52570929  0.31872463  0.95230930     0.36100
C664        C  0.54033452  0.34725411  0.98010725    -0.25900
C665        C  0.55697657  0.34408465  0.02986003    -0.15100
C666        C  0.55910615  0.31182965  0.05218259     0.37200
N667        N  0.57761297  0.30680092  0.10206075    -0.89400
H668        H  0.54747004  0.25917228  0.04287169     0.18300
H669        H  0.53926051  0.37196314  0.96252995     0.18300
N670        N  0.50882990  0.32304287  0.90166142    -0.88400
H671        H  0.55692996  0.31989033  0.12814090     0.35700
H672        H  0.61129937  0.31666510  0.10330600     0.40800
H673        H  0.53498344  0.33452756  0.88024484     0.40400
H674        H  0.48037460  0.33947540  0.90299173     0.35300
C675        C  0.13811779  0.51213615  0.90363637    -0.26400
C676        C  0.10073218  0.50757853  0.87007431    -0.14500
C677        C  0.10803655  0.51334863  0.81757935     0.36100
C678        C  0.15156833  0.52416560  0.80039583    -0.25900
C679        C  0.18881401  0.52899824  0.83399755    -0.15100
C680        C  0.18216899  0.52217352  0.88617752     0.37200
N681        N  0.22025079  0.52511853  0.92121778    -0.89400
H682        H  0.13312110  0.50740386  0.94374304     0.18300
H683        H  0.15594108  0.52957382  0.76040401     0.18300
N684        N  0.07169250  0.50970845  0.78085242    -0.88400
H685        H  0.24506669  0.50698996  0.91104811     0.35700
H686        H  0.20953196  0.51938010  0.95810881     0.40800
H687        H  0.04362715  0.52491497  0.79170603     0.40400
H688        H  0.06123409  0.48443069  0.77965885     0.35300
C689        C  0.34724054  0.48998111  0.64282401    -0.26400
C690        C  0.35726063  0.51526077  0.60711072    -0.14500
C691        C  0.34599296  0.54923395  0.61883639     0.36100
C692        C  0.32475295  0.55696664  0.66516372    -0.25900
C693        C  0.31522605  0.53177526  0.70111795    -0.15100
C694        C  0.32706515  0.49787413  0.68978229     0.37200
N695        N  0.32128636  0.47123979  0.72590530    -0.89400
H696        H  0.35634665  0.46390670  0.63474404     0.18300
H697        H  0.31602846  0.58308727  0.67346915     0.18300
N698        N  0.35475331  0.57636092  0.58428051    -0.88400
H699        H  0.28598051  0.46809684  0.73350691     0.35700
H700        H  0.33829119  0.47806940  0.75945358     0.40800
H701        H  0.33892655  0.57070070  0.54957961     0.40400
H702        H  0.39058168  0.57860943  0.57888774     0.35300
C703        C  0.32379423  0.61081378  0.90117317    -0.26400
C704        C  0.32010306  0.61118867  0.84816486    -0.14500
C705        C  0.33401195  0.64029163  0.82152771     0.36100
C706        C  0.34979054  0.66869224  0.84835307    -0.25900
C707        C  0.35124318  0.66913741  0.90173200    -0.15100
C708        C  0.33892195  0.63920172  0.92821050     0.37200
N709        N  0.33957302  0.63684777  0.98240080    -0.89400
H710        H  0.31367642  0.58840841  0.92199011     0.18300
H711        H  0.35948108  0.69096176  0.82702835     0.18300
N712        N  0.32996181  0.64183129  0.76740503    -0.88400
H713        H  0.31774778  0.65540348  0.99773286     0.35700
H714        H  0.37361252  0.64034919  0.99506593     0.40800
H715        H  0.36284490  0.64698220  0.75241133     0.40400
H716        H  0.30801544  0.66199120  0.75833036     0.35300
loop_ 
_geom_bond_atom_site_label_1 
_geom_bond_atom_site_label_2 
_geom_bond_distance 
_geom_bond_site_symmetry_2 
_ccdc_geom_bond_type 
C1            C2   1.402       .  A
C1            C6   1.407       .  A
C1          C693   1.483       .  S
C2            C3   1.399       .  A
C2            H7   1.084       .  S
C3            C4   1.402       .  A
C3          C704   1.483       .  S
C4            C5   1.404       .  A
C4            H8   1.083       .  S
C5            C6   1.409       .  A
C5          C679   1.491       .  S
C6            H9   1.082       .  S
C10          C11   1.401       .  A
C10          C15   1.403       .  A
C10         C651   1.472       .  S
C11          C12   1.401       .  A
C11          H16   1.084       .  S
C12          C13   1.401       .  A
C12         C634   1.474       .  S
C13          C14   1.399       .  A
C13          H17   1.084       .  S
C14          C15   1.403       .  A
C14         C665   1.476       .  S
C15          H18   1.084       .  S
Zn19         O23   1.962       .  S
Zn19         O24   2.031       .  S
Zn19         O28   2.014       .  S
Zn19         O35   2.018       .  S
Zn20         O23   1.955       .  S
Zn20         O25   2.009       .  S
Zn20         O27   2.001       .  S
Zn20         O31   2.025       .  S
Zn21         O23   1.963       .  S
Zn21         O26   2.008       .  S
Zn21         O29   2.020       .  S
Zn21         O32   2.026       .  S
Zn22         O23   1.947       .  S
Zn22         O30   1.998       .  S
Zn22         O33   2.002       .  S
Zn22         O34   2.012       .  S
O24          C36   1.274       .  A
O25          C37   1.272       .  A
O26          C38   1.273       .  A
O27          C36   1.272       .  A
O28          C38   1.275       .  A
O29          C37   1.274       .  A
O30          C39   1.271       .  A
O31          C40   1.273       .  A
O32          C39   1.273       .  A
O33          C40   1.272       .  A
O34          C41   1.273       .  A
O35          C41   1.273       .  A
C36         C578   1.479       .  S
C37         C648   1.485       .  S
C38         C609   1.488       .  S
C39         C592   1.489       .  S
C40         C620   1.471       .  S
C41         C690   1.481       .  S
C42         C564   1.490       .  S
C42          N43   1.359   1_554  A
C42          N47   1.359   1_554  A
N43          C44   1.355       .  A
C44         C707   1.489       .  S
C44          N45   1.357       .  A
N45          C46   1.357       .  A
C46         C550   1.487       .  S
C46          N47   1.359       .  A
C48         C536   1.475       .  S
C48          N49   1.360       .  A
C48          N53   1.358       .  A
N49          C50   1.360       .  A
C50         C581   1.485       .  S
C50          N51   1.358       .  A
N51          C52   1.356       .  A
C52         C567   1.490       .  S
C52          N53   1.356       .  A
C54          C55   1.401       .  A
C54          C59   1.404       .  A
C54         C522   1.474       .  S
C55          C56   1.402       .  A
C55          H60   1.084       .  S
C56          C57   1.403       .  A
C56         C553   1.483       .  S
C57          C58   1.402       .  A
C57          H61   1.084       .  S
C58          C59   1.404       .  A
C58         C508   1.477       .  S
C59          H62   1.084       .  S
C63          C64   1.404       .  A
C63          C68   1.402       .  A
C63         C480   1.479       .  S
C64          C65   1.404       .  A
C64          H69   1.084   1_545  S
C65          C66   1.404       .  A
C65         C466   1.486       .  S
C66          C67   1.403       .  A
C66          H70   1.083   1_554  S
C67          C68   1.400       .  A
C67         C494   1.481       .  S
C68          H71   1.083       .  S
Zn72         O76   1.952       .  S
Zn72         O77   2.021       .  S
Zn72         O81   2.017       .  S
Zn72         O88   2.003   1_565  S
Zn73         O76   1.947       .  S
Zn73         O78   1.997       .  S
Zn73         O80   1.999       .  S
Zn73         O84   1.999       .  S
Zn74         O76   1.963       .  S
Zn74         O79   2.015       .  S
Zn74         O82   2.028       .  S
Zn74         O85   2.024       .  S
Zn75         O76   1.960   1_545  S
Zn75         O83   2.004       .  S
Zn75         O86   2.017       .  S
Zn75         O87   2.031       .  S
O77          C89   1.272       .  A
O78          C90   1.271       .  A
O79          C91   1.273       .  A
O80          C89   1.271       .  A
O81          C91   1.274       .  A
O82          C90   1.275       .  A
O83          C92   1.272   1_545  A
O84          C93   1.270       .  A
O85          C92   1.274       .  A
O86          C93   1.272   1_545  A
O87          C94   1.275       .  A
O88          C94   1.274       .  A
C89         C452   1.478       .  S
C90         C539   1.483       .  S
C91         C525   1.491       .  S
C92         C438   1.478       .  S
C93         C483   1.466   1_565  S
C94         C427   1.486       .  S
C95         C595   1.471       .  S
C95          N96   1.356       .  A
C95         N100   1.360       .  A
N96          C97   1.355       .  A
C97         C410   1.493       .  S
C97          N98   1.358       .  A
N98          C99   1.360       .  A
C99         C424   1.482       .  S
C99         N100   1.361       .  A
C101        C413   1.494       .  S
C101        N102   1.364       .  A
C101        N106   1.360       .  A
N102        C103   1.360       .  A
C103        C662   1.493       .  S
C103        N104   1.355       .  A
N104        C105   1.353       .  A
C105        C497   1.487       .  S
C105        N106   1.357       .  A
C107        C108   1.405       .  A
C107        C112   1.405       .  A
C107        C385   1.487       .  S
C108        C109   1.403       .  A
C108        H113   1.083       .  S
C109        C110   1.404       .  A
C109        C399   1.489       .  S
C110        C111   1.407       .  A
C110        H114   1.083       .  S
C111        C112   1.405       .  A
C111        C623   1.490       .  S
C112        H115   1.083       .  S
C116        C117   1.400       .  A
C116        C121   1.402       .  A
C116        C357   1.471       .  S
C117        C118   1.398       .  A
C117        H122   1.084       .  S
C118        C119   1.400       .  A
C118        C606   1.471       .  S
C119        C120   1.404       .  A
C119        H123   1.084       .  S
C120        C121   1.404       .  A
C120        C371   1.485       .  S
C121        H124   1.084       .  S
Zn125       O129   1.958       .  S
Zn125       O130   2.005       .  S
Zn125       O134   2.005       .  S
Zn125       O141   2.011       .  S
Zn126       O129   1.961       .  S
Zn126       O131   2.031   1_656  S
Zn126       O133   2.025       .  S
Zn126       O137   2.025   1_655  S
Zn127       O129   1.959       .  S
Zn127       O132   2.017   1_556  S
Zn127       O135   2.006   1_556  S
Zn127       O138   2.025       .  S
Zn128       O129   1.948       .  S
Zn128       O136   2.003       .  S
Zn128       O139   2.012   1_655  S
Zn128       O140   1.999       .  S
O130        C142   1.272       .  A
O131        C143   1.276   1_455  A
O132        C144   1.274   1_554  A
O133        C142   1.274       .  A
O134        C144   1.271       .  A
O135        C143   1.274       .  A
O136        C145   1.273       .  A
O137        C146   1.275       .  A
O138        C145   1.273       .  A
O139        C146   1.272       .  A
O140        C147   1.271       .  A
O141        C147   1.273       .  A
C142        C326   1.471   1_556  S
C143        C382   1.485   1_655  S
C144        C637   1.487   1_556  S
C145        C340   1.481       .  S
C146        C676   1.487       .  S
C147        C354   1.486       .  S
C148        C343   1.488       .  S
C148        N149   1.362       .  A
C148        N153   1.357       .  A
N149        C150   1.362       .  A
C150        C301   1.477       .  S
C150        N151   1.359       .  A
N151        C152   1.357       .  A
C152        C312   1.491       .  S
C152        N153   1.354       .  A
C154        C315   1.491   1_455  S
C154        N155   1.362       .  A
C154        N159   1.358       .  A
N155        C156   1.360       .  A
C156        C396   1.493       .  S
C156        N157   1.356       .  A
N157        C158   1.358       .  A
C158        C287   1.488       .  S
C158        N159   1.357       .  A
C160        C161   1.405       .  A
C160        C165   1.402       .  A
C160        C270   1.479       .  S
C161        C162   1.405       .  A
C161        H166   1.084   1_545  S
C162        C163   1.401       .  A
C162        C441   1.477       .  S
C163        C164   1.402       .  A
C163        H167   1.084       .  S
C164        C165   1.402       .  A
C164        C284   1.484       .  S
C165        H168   1.084       .  S
C169        C170   1.402       .  A
C169        C174   1.402       .  A
C169        C242   1.477       .  S
C170        C171   1.403       .  A
C170        H175   1.084       .  S
C171        C172   1.401       .  A
C171        C256   1.480       .  S
C172        C173   1.402       .  A
C172        H176   1.083       .  S
C173        C174   1.402       .  A
C173        C455   1.478       .  S
C174        H177   1.084       .  S
Zn178       O182   1.949   1_554  S
Zn178       O183   2.023       .  S
Zn178       O187   2.004       .  S
Zn178       O194   1.998       .  S
Zn179       O182   1.950       .  S
Zn179       O184   2.003   1_565  S
Zn179       O186   2.015   1_565  S
Zn179       O190   2.003       .  S
Zn180       O182   1.969   1_545  S
Zn180       O185   2.032   1_656  S
Zn180       O188   2.035       .  S
Zn180       O191   2.031   1_645  S
Zn181       O182   1.963       .  S
Zn181       O189   2.020   1_655  S
Zn181       O192   2.019       .  S
Zn181       O193   2.027       .  S
O183        C195   1.273   1_554  A
O184        C196   1.272       .  A
O185        C197   1.276   1_445  A
O186        C195   1.273   1_545  A
O187        C197   1.272       .  A
O188        C196   1.276       .  A
O189        C198   1.274       .  A
O190        C199   1.272       .  A
O191        C198   1.276       .  A
O192        C199   1.274       .  A
O193        C200   1.275       .  A
O194        C200   1.271   1_554  A
C195        C469   1.487   1_566  S
C196        C298   1.485       .  S
C197        C273   1.491   1_665  S
C198        C511   1.496       .  S
C199        C245   1.473       .  S
C200        C228   1.485   1_556  S
C201        C214   1.487       .  S
C201        N202   1.359       .  A
C201        N206   1.360       .  A
N202        C203   1.358       .  A
C203        C259   1.492       .  S
C203        N204   1.357       .  A
N204        C205   1.358       .  A
C205        C368   1.485       .  S
C205        N206   1.359       .  A
C207        C329   1.476       .  S
C207        N208   1.357       .  A
C207        N212   1.360       .  A
N208        C209   1.355       .  A
C209        C217   1.484       .  S
C209        N210   1.355       .  A
N210        C211   1.360       .  A
C211        C231   1.493       .  S
C211        N212   1.362       .  A
C213        C214   1.407       .  A
C213        C218   1.401       .  A
C213        H220   1.084       .  S
C214        C215   1.413       .  A
C215        C216   1.403       .  A
C215        N222   1.432       .  S
C216        C217   1.405       .  A
C216        H221   1.084       .  S
C217        C218   1.411       .  A
C218        N219   1.433       .  S
N219        H223   1.046       .  S
N219        H224   1.046       .  S
N222        H225   1.046       .  S
N222        H226   1.046       .  S
C227        C228   1.404   1_556  A
C227        C232   1.409   1_556  A
C227        H234   1.083       .  S
C228        C229   1.413       .  A
C229        C230   1.402       .  A
C229        N236   1.439       .  S
C230        C231   1.407       .  A
C230        H235   1.083       .  S
C231        C232   1.417       .  A
C232        N233   1.438   1_554  S
N233        H237   1.046       .  S
N233        H238   1.046       .  S
N236        H239   1.046       .  S
N236        H240   1.046       .  S
C241        C242   1.400       .  A
C241        C246   1.401       .  A
C241        H248   1.084       .  S
C242        C243   1.413       .  A
C243        C244   1.397       .  A
C243        N250   1.433       .  S
C244        C245   1.403       .  A
C244        H249   1.084       .  S
C245        C246   1.420       .  A
C246        N247   1.440       .  S
N247        H251   1.046       .  S
N247        H252   1.042       .  S
N250        H253   1.044       .  S
N250        H254   1.046       .  S
C255        C256   1.399       .  A
C255        C260   1.400       .  A
C255        H262   1.084       .  S
C256        C257   1.413       .  A
C257        C258   1.399       .  A
C257        N264   1.432       .  S
C258        C259   1.409       .  A
C258        H263   1.083       .  S
C259        C260   1.416       .  A
C260        N261   1.430       .  S
N261        H265   1.046       .  S
N261        H266   1.046       .  S
N264        H267   1.045       .  S
N264        H268   1.042       .  S
C269        C270   1.399       .  A
C269        C274   1.400   1_455  A
C269        H276   1.084       .  S
C270        C271   1.410       .  A
C271        C272   1.409       .  A
C271        N278   1.438       .  S
C272        C273   1.409       .  A
C272        H277   1.083       .  S
C273        C274   1.416   1_455  A
C274        N275   1.433   1_545  S
N275        H279   1.046   1_565  S
N275        H280   1.046       .  S
N278        H281   1.046       .  S
N278        H282   1.046       .  S
C283        C284   1.404       .  A
C283        C288   1.403       .  A
C283        H290   1.084       .  S
C284        C285   1.410       .  A
C285        C286   1.399       .  A
C285        N292   1.433       .  S
C286        C287   1.406       .  A
C286        H291   1.081       .  S
C287        C288   1.415       .  A
C288        N289   1.432       .  S
N289        H293   1.046       .  S
N289        H294   1.046       .  S
N292        H295   1.046       .  S
N292        H296   1.046       .  S
C297        C298   1.407       .  A
C297        C302   1.409       .  A
C297        H304   1.083       .  S
C298        C299   1.416       .  A
C299        C300   1.403       .  A
C299        N306   1.439       .  S
C300        C301   1.401       .  A
C300        H305   1.084       .  S
C301        C302   1.410       .  A
C302        N303   1.437   1_655  S
N303        H307   1.046       .  S
N303        H308   1.045   1_455  S
N306        H309   1.046       .  S
N306        H310   1.046       .  S
C311        C312   1.406       .  A
C311        C316   1.407       .  A
C311        H318   1.083       .  S
C312        C313   1.414       .  A
C313        C314   1.400   1_655  A
C313        N320   1.432   1_655  S
C314        C315   1.405   1_455  A
C314        H319   1.083       .  S
C315        C316   1.418       .  A
C316        N317   1.438       .  S
N317        H321   1.046       .  S
N317        H322   1.046       .  S
N320        H323   1.046   1_455  S
N320        H324   1.046       .  S
C325        C326   1.403   1_556  A
C325        C330   1.409   1_556  A
C325        H332   1.084       .  S
C326        C327   1.405       .  A
C327        C328   1.399       .  A
C327        N334   1.433       .  S
C328        C329   1.403       .  A
C328        H333   1.084       .  S
C329        C330   1.413       .  A
C330        N331   1.437   1_554  S
N331        H335   1.046       .  S
N331        H336   1.045   1_556  S
N334        H337   1.046       .  S
N334        H338   1.046       .  S
C339        C340   1.401       .  A
C339        C344   1.401       .  A
C339        H346   1.084       .  S
C340        C341   1.412       .  A
C341        C342   1.410       .  A
C341        N348   1.437       .  S
C342        C343   1.407       .  A
C342        H347   1.083       .  S
C343        C344   1.417       .  A
C344        N345   1.439       .  S
N345        H349   1.046       .  S
N345        H350   1.046       .  S
N348        H351   1.046   1_655  S
N348        H352   1.046       .  S
C353        C354   1.407       .  A
C353        C358   1.396       .  A
C353        H360   1.083       .  S
C354        C355   1.417       .  A
C355        C356   1.401       .  A
C355        N362   1.433       .  S
C356        C357   1.398       .  A
C356        H361   1.084       .  S
C357        C358   1.410       .  A
C358        N359   1.433       .  S
N359        H363   1.045       .  S
N359        H364   1.046       .  S
N362        H365   1.046       .  S
N362        H366   1.046       .  S
C367        C368   1.406       .  A
C367        C372   1.407       .  A
C367        H374   1.083       .  S
C368        C369   1.412       .  A
C369        C370   1.399       .  A
C369        N376   1.431       .  S
C370        C371   1.402       .  A
C370        H375   1.084       .  S
C371        C372   1.413       .  A
C372        N373   1.438       .  S
N373        H377   1.046       .  S
N373        H378   1.046       .  S
N376        H379   1.046       .  S
N376        H380   1.045       .  S
C381        C382   1.406       .  A
C381        C386   1.404       .  A
C381        H388   1.084       .  S
C382        C383   1.412       .  A
C383        C384   1.404       .  A
C383        N390   1.432       .  S
C384        C385   1.404       .  A
C384        H389   1.084       .  S
C385        C386   1.414       .  A
C386        N387   1.438       .  S
N387        H391   1.046       .  S
N387        H392   1.046       .  S
N390        H393   1.046       .  S
N390        H394   1.046       .  S
C395        C396   1.409       .  A
C395        C400   1.408       .  A
C395        H402   1.083       .  S
C396        C397   1.421       .  A
C397        C398   1.397       .  A
C397        N404   1.432       .  S
C398        C399   1.403       .  A
C398        H403   1.084       .  S
C399        C400   1.412       .  A
C400        N401   1.438       .  S
N401        H405   1.046       .  S
N401        H406   1.045       .  S
N404        H407   1.046   1_455  S
N404        H408   1.043       .  S
C409        C410   1.406       .  A
C409        C414   1.403       .  A
C409        H416   1.083       .  S
C410        C411   1.416       .  A
C411        C412   1.403       .  A
C411        N418   1.432       .  S
C412        C413   1.406       .  A
C412        H417   1.083       .  S
C413        C414   1.417       .  A
C414        N415   1.432       .  S
N415        H419   1.046       .  S
N415        H420   1.046       .  S
N418        H421   1.046       .  S
N418        H422   1.046       .  S
C423        C424   1.405       .  A
C423        C428   1.408       .  A
C423        H430   1.084       .  S
C424        C425   1.410       .  A
C425        C426   1.399       .  A
C425        N432   1.433       .  S
C426        C427   1.405       .  A
C426        H431   1.084       .  S
C427        C428   1.413       .  A
C428        N429   1.432       .  S
N429        H433   1.046       .  S
N429        H434   1.046       .  S
N432        H435   1.046       .  S
N432        H436   1.046       .  S
C437        C438   1.404       .  A
C437        C442   1.406       .  A
C437        H444   1.084       .  S
C438        C439   1.416   1_565  A
C439        C440   1.397       .  A
C439        N446   1.433       .  S
C440        C441   1.400       .  A
C440        H445   1.084       .  S
C441        C442   1.411   1_545  A
C442        N443   1.438       .  S
N443        H447   1.046       .  S
N443        H448   1.045       .  S
N446        H449   1.046   1_545  S
N446        H450   1.044       .  S
C451        C452   1.404       .  A
C451        C456   1.396       .  A
C451        H458   1.084       .  S
C452        C453   1.416       .  A
C453        C454   1.399       .  A
C453        N460   1.432       .  S
C454        C455   1.403       .  A
C454        H459   1.084       .  S
C455        C456   1.413       .  A
C456        N457   1.433       .  S
N457        H461   1.042       .  S
N457        H462   1.046       .  S
N460        H463   1.045       .  S
N460        H464   1.045       .  S
C465        C466   1.404       .  A
C465        C470   1.406       .  A
C465        H472   1.084       .  S
C466        C467   1.411   1_554  A
C467        C468   1.405       .  A
C467        N474   1.438       .  S
C468        C469   1.407   1_556  A
C468        H473   1.084   1_545  S
C469        C470   1.415       .  A
C470        N471   1.438       .  S
N471        H475   1.046       .  S
N471        H476   1.046       .  S
N474        H477   1.046   1_545  S
N474        H478   1.046       .  S
C479        C480   1.404       .  A
C479        C484   1.400       .  A
C479        H486   1.084       .  S
C480        C481   1.416       .  A
C481        C482   1.399       .  A
C481        N488   1.433       .  S
C482        C483   1.401       .  A
C482        H487   1.084   1_545  S
C483        C484   1.404       .  A
C484        N485   1.432       .  S
N485        H489   1.046       .  S
N485        H490   1.046       .  S
N488        H491   1.046   1_545  S
N488        H492   1.043       .  S
C493        C494   1.402       .  A
C493        C498   1.400       .  A
C493        H500   1.084       .  S
C494        C495   1.414   1_554  A
C495        C496   1.399       .  A
C495        N502   1.433       .  S
C496        C497   1.406       .  A
C496        H501   1.083       .  S
C497        C498   1.415   1_556  A
C498        N499   1.433       .  S
N499        H503   1.046       .  S
N499        H504   1.046       .  S
N502        H505   1.046       .  S
N502        H506   1.043       .  S
C507        C508   1.399       .  A
C507        C512   1.406       .  A
C507        H514   1.084       .  S
C508        C509   1.406       .  A
C509        C510   1.408       .  A
C509        N516   1.438       .  S
C510        C511   1.411       .  A
C510        H515   1.083       .  S
C511        C512   1.420       .  A
C512        N513   1.438       .  S
N513        H517   1.046       .  S
N513        H518   1.046       .  S
N516        H519   1.046       .  S
N516        H520   1.046   1_565  S
C521        C522   1.399       .  A
C521        C526   1.403       .  A
C521        H528   1.084       .  S
C522        C523   1.408       .  A
C523        C524   1.400       .  A
C523        N530   1.432       .  S
C524        C525   1.410       .  A
C524        H529   1.083       .  S
C525        C526   1.417       .  A
C526        N527   1.433       .  S
N527        H531   1.046       .  S
N527        H532   1.046       .  S
N530        H533   1.045       .  S
N530        H534   1.046       .  S
C535        C536   1.400       .  A
C535        C540   1.394       .  A
C535        H542   1.084       .  S
C536        C537   1.411       .  A
C537        C538   1.408       .  A
C537        N544   1.437       .  S
C538        C539   1.406       .  A
C538        H543   1.084       .  S
C539        C540   1.419       .  A
C540        N541   1.433       .  S
N541        H545   1.045       .  S
N541        H546   1.046       .  S
N544        H547   1.046       .  S
N544        H548   1.046       .  S
C549        C550   1.407       .  A
C549        C554   1.405       .  A
C549        H556   1.083       .  S
C550        C551   1.416       .  A
C551        C552   1.403       .  A
C551        N558   1.438       .  S
C552        C553   1.403       .  A
C552        H557   1.084       .  S
C553        C554   1.410       .  A
C554        N555   1.438       .  S
N555        H559   1.046       .  S
N555        H560   1.046       .  S
N558        H561   1.046       .  S
N558        H562   1.046       .  S
C563        C564   1.406       .  A
C563        C568   1.400       .  A
C563        H570   1.082       .  S
C564        C565   1.414       .  A
C565        C566   1.404       .  A
C565        N572   1.432       .  S
C566        C567   1.407       .  A
C566        H571   1.083       .  S
C567        C568   1.413       .  A
C568        N569   1.433       .  S
N569        H573   1.046       .  S
N569        H574   1.046       .  S
N572        H575   1.046       .  S
N572        H576   1.046       .  S
C577        C578   1.403       .  A
C577        C582   1.409       .  A
C577        H584   1.084       .  S
C578        C579   1.411       .  A
C579        C580   1.401       .  A
C579        N586   1.439       .  S
C580        C581   1.405       .  A
C580        H585   1.083       .  S
C581        C582   1.415       .  A
C582        N583   1.437       .  S
N583        H587   1.046       .  S
N583        H588   1.046       .  S
N586        H589   1.046       .  S
N586        H590   1.046       .  S
C591        C592   1.408       .  A
C591        C596   1.396       .  A
C591        H598   1.083       .  S
C592        C593   1.415       .  A
C593        C594   1.405       .  A
C593        N600   1.432       .  S
C594        C595   1.401       .  A
C594        H599   1.084       .  S
C595        C596   1.410       .  A
C596        N597   1.433       .  S
N597        H601   1.044       .  S
N597        H602   1.046       .  S
N600        H603   1.046       .  S
N600        H604   1.046       .  S
C605        C606   1.398       .  A
C605        C610   1.406       .  A
C605        H612   1.084       .  S
C606        C607   1.408       .  A
C607        C608   1.395       .  A
C607        N614   1.433       .  S
C608        C609   1.408       .  A
C608        H613   1.083       .  S
C609        C610   1.420       .  A
C610        N611   1.438       .  S
N611        H615   1.046       .  S
N611        H616   1.046       .  S
N614        H617   1.044       .  S
N614        H618   1.046       .  S
C619        C620   1.401       .  A
C619        C624   1.409       .  A
C619        H626   1.084       .  S
C620        C621   1.408       .  A
C621        C622   1.401       .  A
C621        N628   1.439       .  S
C622        C623   1.406       .  A
C622        H627   1.083       .  S
C623        C624   1.416       .  A
C624        N625   1.438       .  S
N625        H629   1.046       .  S
N625        H630   1.046       .  S
N628        H631   1.046       .  S
N628        H632   1.046       .  S
C633        C634   1.399       .  A
C633        C638   1.403       .  A
C633        H640   1.084       .  S
C634        C635   1.411       .  A
C635        C636   1.396       .  A
C635        N642   1.433       .  S
C636        C637   1.407       .  A
C636        H641   1.083       .  S
C637        C638   1.417       .  A
C638        N639   1.433       .  S
N639        H643   1.046       .  S
N639        H644   1.046   1_554  S
N642        H645   1.044       .  S
N642        H646   1.046       .  S
C647        C648   1.407       .  A
C647        C652   1.398       .  A
C647        H654   1.084       .  S
C648        C649   1.416       .  A
C649        C650   1.404       .  A
C649        N656   1.433       .  S
C650        C651   1.399       .  A
C650        H655   1.084       .  S
C651        C652   1.410       .  A
C652        N653   1.433       .  S
N653        H657   1.046       .  S
N653        H658   1.045       .  S
N656        H659   1.046       .  S
N656        H660   1.046       .  S
C661        C662   1.410   1_554  A
C661        C666   1.393       .  A
C661        H668   1.082       .  S
C662        C663   1.416       .  A
C663        C664   1.408       .  A
C663        N670   1.432       .  S
C664        C665   1.402   1_556  A
C664        H669   1.084       .  S
C665        C666   1.409       .  A
C666        N667   1.433       .  S
N667        H671   1.044       .  S
N667        H672   1.046       .  S
N670        H673   1.046       .  S
N670        H674   1.046       .  S
C675        C676   1.405       .  A
C675        C680   1.406       .  A
C675        H682   1.084       .  S
C676        C677   1.419       .  A
C677        C678   1.400       .  A
C677        N684   1.433       .  S
C678        C679   1.404       .  A
C678        H683   1.084       .  S
C679        C680   1.415       .  A
C680        N681   1.438       .  S
N681        H685   1.045       .  S
N681        H686   1.046       .  S
N684        H687   1.045       .  S
N684        H688   1.045       .  S
C689        C690   1.406       .  A
C689        C694   1.400       .  A
C689        H696   1.084       .  S
C690        C691   1.415       .  A
C691        C692   1.397       .  A
C691        N698   1.433       .  S
C692        C693   1.405       .  A
C692        H697   1.084       .  S
C693        C694   1.414       .  A
C694        N695   1.433       .  S
N695        H699   1.043       .  S
N695        H700   1.045       .  S
N698        H701   1.045       .  S
N698        H702   1.045       .  S
C703        C704   1.401       .  A
C703        C708   1.397       .  A
C703        H710   1.084       .  S
C704        C705   1.409       .  A
C705        C706   1.401       .  A
C705        N712   1.433       .  S
C706        C707   1.407       .  A
C706        H711   1.083       .  S
C707        C708   1.422       .  A
C708        N709   1.432       .  S
N709        H713   1.045       .  S
N709        H714   1.044       .  S
N712        H715   1.046       .  S
N712        H716   1.046       .  S
