geometry optimzed in LAMMPS
_audit_creation_date              2020-11-30 
_audit_creation_method            'lammps2cif' 
_symmetry_space_group_name_H-M    'P1' 
_symmetry_Int_Tables_number       1 
_symmetry_cell_setting            triclinic 
loop_ 
_symmetry_equiv_pos_as_xyz 
  x,y,z 
_cell_length_a                    35.18985923 
_cell_length_b                    35.19024003258547 
_cell_length_c                    36.54414246124793 
_cell_angle_alpha                 89.22822939864747 
_cell_angle_beta                  88.6782962151632 
_cell_angle_gamma                 89.20288331352236 
loop_ 
_atom_site_label 
_atom_site_type_symbol 
_atom_site_fract_x 
_atom_site_fract_y 
_atom_site_fract_z 
_atom_site_charge 
O1          O  0.05359215  0.00069073  0.02919102    -0.72100
O2          O  0.44398232  0.49488154  0.01984270    -0.72200
O3          O  0.00156442  0.44528825  0.03550304    -0.72200
O4          O  0.50366409  0.05955380  0.02181800    -0.72300
O5          O  0.00781514  0.04726948  0.46129591    -0.72200
O6          O  0.50606799  0.45149861  0.44526518    -0.72200
O7          O  0.45128876  0.01121366  0.46342633    -0.72200
O8          O  0.06123307  0.49467101  0.47384312    -0.72200
Ni9        Ni  0.00178038  0.49964805  0.03443806     1.25400
Ni10       Ni  0.50890825  0.50595181  0.44508959     1.25000
C11         C  0.07545342  0.49289638  0.50577198     0.90000
C12         C  0.42921506  0.00628419  0.49141987     0.90000
C13         C  0.00237863  0.42599461  0.00607534     0.90000
C14         C  0.99936181  0.06925013  0.98793523     0.90200
O15         O  0.44077752  0.48643658  0.28269683    -0.72100
O16         O  0.04177725  0.99055743  0.28938310    -0.72200
O17         O  0.49167443  0.04788079  0.28968473    -0.72200
O18         O  0.00218139  0.43568053  0.26833803    -0.72300
O19         O  0.50285835  0.45047048  0.21459865    -0.72200
O20         O  0.00154936  0.05216629  0.22347982    -0.72200
O21         O  0.04513831  0.50636130  0.21209470    -0.72200
O22         O  0.44594419  0.00580260  0.21706393    -0.72200
Ni23       Ni  0.49451808  0.49289441  0.28508112     1.25400
Ni24       Ni  0.49524301  0.50429020  0.22037940     1.25400
C25         C  0.42333920  0.48998084  0.25249983     0.90000
C26         C  0.06659393  0.50139984  0.23958022     0.90000
C27         C  0.49569038  0.07016995  0.26189134     0.90000
C28         C  0.50420589  0.42774282  0.24222789     0.90200
O29         O  0.47892076  0.19331646  0.99597665    -0.72100
O30         O  0.46339006  0.30454584  0.49880757    -0.72200
O31         O  0.47100491  0.24966955  0.44691367    -0.72200
O32         O  0.46745858  0.24598671  0.04897212    -0.72300
O33         O  0.02666044  0.25310553  0.04637057    -0.72200
O34         O  0.03802237  0.24148852  0.43741572    -0.72200
O35         O  0.02710620  0.30600136  0.99206510    -0.72200
O36         O  0.03302091  0.19088615  0.49371299    -0.72200
Ni37       Ni  0.46973428  0.24712639  0.99640880     1.25400
Ni38       Ni  0.03635509  0.25222655  0.99462248     1.25400
C39         C  0.99961778  0.17699239  0.49688628     0.90000
C40         C  0.99375880  0.32003384  0.98733006     0.90000
C41         C  0.00621742  0.24404534  0.42126466     0.90000
C42         C  0.99309111  0.24959778  0.06005938     0.90200
O43         O  0.02091267  0.30292268  0.23914651    -0.72100
O44         O  0.03382840  0.19467872  0.23517904    -0.72200
O45         O  0.02281436  0.25090029  0.18533536    -0.72200
O46         O  0.03186546  0.24670581  0.28969697    -0.72300
O47         O  0.47024008  0.24428083  0.30300148    -0.72200
O48         O  0.46494024  0.24680334  0.19854303    -0.72200
O49         O  0.47401188  0.19130291  0.25018493    -0.72200
O50         O  0.46165259  0.29964359  0.25243024    -0.72200
Ni51       Ni  0.02960411  0.24904022  0.23714765     1.25400
Ni52       Ni  0.46545825  0.24525232  0.25108998     1.25400
C53         C  0.49112118  0.32059960  0.25070962     0.90000
C54         C  0.50754353  0.17687499  0.24700682     0.90000
C55         C  0.49552624  0.25037716  0.17922938     0.90000
C56         C  0.50248395  0.24761630  0.31788817     0.90200
O57         O  0.19763773  0.47405162  0.49284545    -0.72100
O58         O  0.30496310  0.45837814  0.99350509    -0.72200
O59         O  0.24709746  0.46508187  0.04282404    -0.72200
O60         O  0.25255094  0.46656161  0.43986389    -0.72300
O61         O  0.25044130  0.03243013  0.45905257    -0.72200
O62         O  0.25265772  0.02630897  0.06436627    -0.72200
O63         O  0.30777489  0.02354333  0.50679767    -0.72200
O64         O  0.19672609  0.03745647  0.01585070    -0.72200
Ni65       Ni  0.25187396  0.46716141  0.49245336     1.25400
Ni66       Ni  0.25368841  0.03092223  0.51135268     1.25400
C67         C  0.17592038  0.00800512  0.01392338     0.90000
C68         C  0.32292347  0.99020968  0.50616622     0.90000
C69         C  0.24993263  0.99324754  0.07902733     0.90000
C70         C  0.24807749  0.00201405  0.44051904     0.90200
O71         O  0.30326982  0.02338606  0.25785828    -0.72100
O72         O  0.19517629  0.03664916  0.25524232    -0.72200
O73         O  0.24743613  0.03390670  0.30948339    -0.72200
O74         O  0.25122912  0.02582650  0.20476692    -0.72300
O75         O  0.24777414  0.46425052  0.18833575    -0.72200
O76         O  0.25234349  0.46406058  0.29289559    -0.72200
O77         O  0.19591964  0.45812256  0.24469515    -0.72200
O78         O  0.30378694  0.47019033  0.23753932    -0.72200
Ni79       Ni  0.24947850  0.03221890  0.25676849     1.25400
Ni80       Ni  0.25016877  0.46190492  0.24076226     1.25400
C81         C  0.31760385  0.50367678  0.23605290     0.90000
C82         C  0.17424827  0.48762996  0.24555499     0.90000
C83         C  0.24938061  0.49562370  0.30967581     0.90000
C84         C  0.24372991  0.49584217  0.17097413     0.90200
C85         C  0.25179692  0.49553960  0.34875729    -0.11000
C86         C  0.25365733  0.49555714  0.38162484    -0.12600
C87         C  0.24427375  0.49610533  0.13173035    -0.11000
C88         C  0.24613044  0.49658893  0.09875867    -0.12600
C89         C  0.00578257  0.24233661  0.38201673    -0.11000
C90         C  0.50369805  0.24878379  0.35700181    -0.12600
C91         C  0.98806239  0.24963309  0.09920747    -0.11000
C92         C  0.49370279  0.25073413  0.14003575    -0.12600
C93         C  0.10785147  0.50621778  0.23434438    -0.14200
C94         C  0.13292812  0.48258377  0.25020202    -0.29300
H95         H  0.11640007  0.97187774  0.29273710     0.14900
H96         H  0.12287018  0.45812182  0.26590421     0.15400
C97         C  0.38206520  0.48472352  0.25270041    -0.14200
C98         C  0.35903143  0.50831322  0.23418023    -0.29300
H99         H  0.37158104  0.02355831  0.22029532     0.14900
H100        H  0.37064014  0.53273521  0.21946920     0.15400
C101        C  0.50878866  0.38669406  0.23631964    -0.14200
C102        C  0.48624695  0.36194699  0.25429083    -0.29300
H103        H  0.02144336  0.37385425  0.20564355     0.14900
H104        H  0.46301764  0.37240208  0.27168622     0.15400
C105        C  0.49356155  0.11156499  0.26702249    -0.14200
C106        C  0.51249736  0.13547564  0.24454820    -0.29300
H107        H  0.47610872  0.12263169  0.28947725     0.14900
H108        H  0.03177647  0.12071586  0.21796845     0.15400
C109        C  0.11459640  0.98468581  0.49804143    -0.14200
C110        C  0.13715961  0.00782074  0.51638973    -0.29300
H111        H  0.12842158  0.47040552  0.52991232     0.14900
H112        H  0.12204245  0.03431961  0.03373500     0.15400
C113        C  0.36451640  0.98573375  0.50635109    -0.14200
C114        C  0.38775357  0.00899349  0.48733998    -0.29300
H115        H  0.37183021  0.96578020  0.98203515     0.14900
H116        H  0.37986351  0.52984460  0.44800259     0.15400
C117        C  0.98866754  0.36153358  0.98471711    -0.14200
C118        C  0.00444564  0.38427960  0.00906755    -0.29300
H119        H  0.46403887  0.37470260  0.01588545     0.14900
H120        H  0.97331743  0.37299257  0.51984001     0.15400
C121        C  0.99772854  0.11034266  0.97993018    -0.14200
C122        C  0.01741577  0.13510527  0.99932097    -0.29300
H123        H  0.47729745  0.12652613  0.53706048     0.14900
H124        H  0.03784145  0.12477408  0.01910552     0.15400
O125        O  0.05555927  0.99676893  0.52933517    -0.72100
O126        O  0.44773392  0.50458635  0.50386322    -0.72200
O127        O  0.99591597  0.44433630  0.53053885    -0.72200
O128        O  0.49564063  0.05195454  0.53739913    -0.72300
O129        O  0.99657028  0.04579784  0.96167321    -0.72200
O130        O  0.51408752  0.45325637  0.96258461    -0.72200
O131        O  0.43934619  0.99831515  0.98067293    -0.72200
O132        O  0.06066028  0.49320364  0.97388610    -0.72200
Ni133      Ni  0.99970166  0.49844056  0.53235704     1.25400
Ni134      Ni  0.51140316  0.50736810  0.96931396     1.25000
C135        C  0.07625880  0.49433926  0.00517610     0.90000
C136        C  0.42664878  0.00455828  0.01318074     0.90000
C137        C  0.99865164  0.42648024  0.50032110     0.90000
C138        C  0.00961240  0.06947800  0.48866088     0.90200
O139        O  0.45294282  0.49162785  0.77966096    -0.72100
O140        O  0.04556874  0.99558974  0.79062714    -0.72200
O141        O  0.49439255  0.05246872  0.78763966    -0.72200
O142        O  0.01670709  0.44194801  0.76906181    -0.72300
O143        O  0.51555376  0.45479914  0.71256411    -0.72200
O144        O  0.00691647  0.05877752  0.72551565    -0.72200
O145        O  0.05777868  0.51462787  0.71413991    -0.72200
O146        O  0.44810421  0.00955413  0.71589110    -0.72200
Ni147      Ni  0.50670597  0.49727360  0.78297207     1.25400
Ni148      Ni  0.50870211  0.50878594  0.71829113     1.25400
C149        C  0.43599763  0.49542949  0.74922073     0.90000
C150        C  0.07894412  0.50994781  0.74187023     0.90000
C151        C  0.49825978  0.07468473  0.75977317     0.90000
C152        C  0.51618442  0.43202772  0.74021536     0.90200
O153        O  0.47834253  0.19617841  0.50052821    -0.72100
O154        O  0.46496245  0.30143246  0.99729293    -0.72200
O155        O  0.47664961  0.24877847  0.94419099    -0.72200
O156        O  0.47083494  0.25080304  0.55175309    -0.72300
O157        O  0.03900423  0.24837205  0.54211468    -0.72200
O158        O  0.04158728  0.25081314  0.94212034    -0.72200
O159        O  0.04395270  0.29902976  0.48509964    -0.72200
O160        O  0.04108677  0.19791097  0.99734974    -0.72200
Ni161      Ni  0.46861460  0.25005680  0.49951266     1.25400
Ni162      Ni  0.04078969  0.24469256  0.48957100     1.25400
C163        C  0.01222566  0.17644633  0.99481474     0.90000
C164        C  0.01410942  0.32028585  0.48502944     0.90000
C165        C  0.01274658  0.24688642  0.92181475     0.90000
C166        C  0.00758647  0.25294219  0.56006901     0.90200
O167        O  0.03902966  0.30820377  0.74013149    -0.72100
O168        O  0.04889490  0.19926269  0.73724193    -0.72200
O169        O  0.04150393  0.25561764  0.68660731    -0.72200
O170        O  0.04713853  0.25185764  0.79114022    -0.72300
O171        O  0.48056865  0.24891254  0.80301762    -0.72200
O172        O  0.47461529  0.25182819  0.69860288    -0.72200
O173        O  0.48250804  0.19614700  0.75013197    -0.72200
O174        O  0.47281218  0.30459460  0.75243087    -0.72200
Ni175      Ni  0.04641997  0.25392036  0.73861183     1.25400
Ni176      Ni  0.47537943  0.25019842  0.75112098     1.25400
C177        C  0.50268865  0.32492308  0.75030721     0.90000
C178        C  0.51561709  0.18080997  0.74689806     0.90000
C179        C  0.50520153  0.25462100  0.67915471     0.90000
C180        C  0.51303420  0.25114802  0.81773170     0.90200
O181        O  0.19700344  0.47176973  0.98835282    -0.72100
O182        O  0.30643737  0.46479665  0.49229982    -0.72200
O183        O  0.25135707  0.47231937  0.54447378    -0.72200
O184        O  0.25488809  0.46524295  0.93802920    -0.72300
O185        O  0.24927681  0.03706723  0.96002211    -0.72200
O186        O  0.25645756  0.02508467  0.56346141    -0.72200
O187        O  0.30519702  0.02550302  0.00925942    -0.72200
O188        O  0.19922800  0.03358052  0.51578227    -0.72200
Ni189      Ni  0.25075687  0.46285710  0.99058126     1.25400
Ni190      Ni  0.25120429  0.03384013  0.01250891     1.25400
C191        C  0.17883760  0.00381390  0.51405321     0.90000
C192        C  0.31969930  0.99218400  0.00507123     0.90000
C193        C  0.25324217  0.99262743  0.57935061     0.90000
C194        C  0.24557279  0.00745587  0.94050698     0.90200
O195        O  0.30637817  0.02647763  0.75830560    -0.72100
O196        O  0.19849302  0.03960054  0.75401143    -0.72200
O197        O  0.24971022  0.03822594  0.80891222    -0.72200
O198        O  0.25522432  0.02776305  0.70453032    -0.72300
O199        O  0.25846180  0.47329089  0.68710912    -0.72200
O200        O  0.26507626  0.46958243  0.79150254    -0.72200
O201        O  0.20782365  0.46586432  0.74421662    -0.72200
O202        O  0.31575375  0.47704623  0.73529774    -0.72200
Ni203      Ni  0.25268834  0.03527214  0.75633147     1.25400
Ni204      Ni  0.26203713  0.46920859  0.73935567     1.25400
C205        C  0.32991504  0.51040699  0.73440288     0.90000
C206        C  0.18648609  0.49553858  0.74642818     0.90000
C207        C  0.26215206  0.50051890  0.80932604     0.90000
C208        C  0.25407632  0.50540291  0.67075211     0.90200
C209        C  0.26288019  0.49884684  0.84852393    -0.11000
C210        C  0.26196032  0.49724260  0.88149213    -0.12600
C211        C  0.25283451  0.50666161  0.63155967    -0.11000
C212        C  0.25278973  0.50676021  0.59858057    -0.12600
C213        C  0.01762691  0.24693657  0.88271345    -0.11000
C214        C  0.51461979  0.25085817  0.85689296    -0.12600
C215        C  0.00769921  0.25433277  0.59937276    -0.11000
C216        C  0.50314869  0.25511135  0.64002866    -0.12600
C217        C  0.12012594  0.51535265  0.73710874    -0.14200
C218        C  0.14520819  0.49076637  0.75159276    -0.29300
H219        H  0.11993265  0.97588751  0.79315663     0.14900
H220        H  0.13514757  0.46557066  0.76614768     0.15400
C221        C  0.39467478  0.49019963  0.74895654    -0.14200
C222        C  0.37144859  0.51473055  0.73177492    -0.29300
H223        H  0.37363073  0.02555832  0.71966138     0.14900
H224        H  0.38297991  0.53976213  0.71803296     0.15400
C225        C  0.52034998  0.39085369  0.73445855    -0.14200
C226        C  0.49850583  0.36638068  0.75361661    -0.29300
H227        H  0.03765245  0.38104150  0.70504565     0.14900
H228        H  0.47604582  0.37717919  0.77173304     0.15400
C229        C  0.49703339  0.11606182  0.76488598    -0.14200
C230        C  0.51929656  0.13923932  0.74465747    -0.29300
H231        H  0.47780295  0.12767911  0.78570293     0.14900
H232        H  0.04422966  0.12457256  0.72177990     0.15400
C233        C  0.11179832  0.99128010  0.99572867    -0.14200
C234        C  0.13430855  0.01243676  0.01620603    -0.29300
H235        H  0.12942980  0.47237703  0.02874368     0.14900
H236        H  0.12483900  0.03145757  0.53163035     0.15400
C237        C  0.36107380  0.98734425  0.00076470    -0.14200
C238        C  0.38537658  0.00784511  0.01985954    -0.29300
H239        H  0.37640256  0.96242836  0.52244469     0.14900
H240        H  0.38287912  0.52432665  0.95889376     0.15400
C241        C  0.01816973  0.36182377  0.48230151    -0.14200
C242        C  0.99458996  0.38498333  0.50116731    -0.29300
H243        H  0.46655899  0.37993779  0.51691368     0.14900
H244        H  0.01901945  0.37183715  0.03234392     0.15400
C245        C  0.01453544  0.11044847  0.48216282    -0.14200
C246        C  0.99496656  0.13589472  0.50230589    -0.29300
H247        H  0.47702300  0.12498558  0.96263622     0.14900
H248        H  0.97365189  0.12630627  0.52222138     0.15400
O249        O  0.05630625  0.49765428  0.03473848    -0.72100
O250        O  0.44920139  0.00875429  0.03980286    -0.72200
O251        O  0.99596290  0.95075616  0.04271144    -0.72200
O252        O  0.49355010  0.54854073  0.03912619    -0.72300
O253        O  0.01113051  0.55276347  0.46896341    -0.72200
O254        O  0.50583553  0.95478437  0.46134269    -0.72200
O255        O  0.45438019  0.51032737  0.44317211    -0.72200
O256        O  0.05503763  0.98647331  0.46919361    -0.72200
Ni257      Ni  0.99932784  0.00476892  0.03410661     1.25400
Ni258      Ni  0.50574918  0.00917459  0.46729227     1.25000
C259        C  0.07304405  0.98959875  0.49899780     0.90000
C260        C  0.43325792  0.50843731  0.47216915     0.90000
C261        C  0.99522005  0.92734110  0.01617004     0.90000
C262        C  0.00706583  0.57023347  0.99754542     0.90200
O263        O  0.43782030  0.99592388  0.27718861    -0.72100
O264        O  0.05272484  0.49306655  0.27140852    -0.72200
O265        O  0.48674744  0.54674681  0.29085205    -0.72200
O266        O  0.99035151  0.93717001  0.27384091    -0.72300
O267        O  0.50023636  0.94947598  0.21529523    -0.72200
O268        O  0.98766985  0.55451509  0.22879645    -0.72200
O269        O  0.05627174  0.99812914  0.22996661    -0.72200
O270        O  0.44118199  0.49767662  0.22239767    -0.72200
Ni271      Ni  0.49138905  0.99355698  0.28469837     1.25400
Ni272      Ni  0.50039285  0.00379058  0.22027100     1.25400
C273        C  0.42417513  0.00176061  0.24539823     0.90000
C274        C  0.06641660  0.99388315  0.26323108     0.90000
C275        C  0.48502028  0.56943154  0.26319549     0.90000
C276        C  0.49556246  0.92718482  0.24299300     0.90200
O277        O  0.47445628  0.69260407  0.00408307    -0.72100
O278        O  0.45326446  0.80663409  0.50465007    -0.72200
O279        O  0.45345367  0.75125318  0.45323029    -0.72200
O280        O  0.46171408  0.74715097  0.05465558    -0.72300
O281        O  0.02700638  0.74466800  0.05893012    -0.72200
O282        O  0.02764396  0.74173580  0.45439616    -0.72200
O283        O  0.03377830  0.79819636  0.00485394    -0.72200
O284        O  0.02286468  0.69169757  0.51088942    -0.72200
Ni285      Ni  0.46329804  0.74620896  0.00230459     1.25400
Ni286      Ni  0.02981614  0.74403495  0.00637409     1.25400
C287        C  0.98992739  0.67665453  0.51267399     0.90000
C288        C  0.00436044  0.81994493  0.00524834     0.90000
C289        C  0.99618621  0.74357008  0.43759689     0.90000
C290        C  0.99523416  0.74840034  0.07642165     0.90200
O291        O  0.01970383  0.80182580  0.25661301    -0.72100
O292        O  0.03282044  0.69365271  0.25374329    -0.72200
O293        O  0.02540563  0.74958111  0.20345635    -0.72200
O294        O  0.02735547  0.74580412  0.30798898    -0.72300
O295        O  0.45322668  0.74466891  0.30648397    -0.72200
O296        O  0.45454435  0.74745594  0.20171436    -0.72200
O297        O  0.45974270  0.69164646  0.25354009    -0.72200
O298        O  0.44829064  0.80035460  0.25539629    -0.72200
Ni299      Ni  0.02857327  0.74796118  0.25548314     1.25400
Ni300      Ni  0.45165939  0.74580642  0.25425462     1.25400
C301        C  0.47804506  0.82094769  0.25493627     0.90000
C302        C  0.49329223  0.67700239  0.25189023     0.90000
C303        C  0.48632970  0.75065053  0.18425165     0.90000
C304        C  0.48456913  0.74759283  0.32312326     0.90200
O305        O  0.19405324  0.97076004  0.51042859    -0.72100
O306        O  0.29877419  0.96284486  0.00348179    -0.72200
O307        O  0.24646321  0.96350899  0.05959141    -0.72200
O308        O  0.24744646  0.96920637  0.45613015    -0.72300
O309        O  0.25735280  0.52970401  0.43565686    -0.72200
O310        O  0.25387021  0.52810597  0.04217421    -0.72200
O311        O  0.31118173  0.52785331  0.48724285    -0.72200
O312        O  0.20380262  0.53476932  0.98680174    -0.72200
Ni313      Ni  0.24808508  0.96338396  0.50848377     1.25400
Ni314      Ni  0.25690787  0.53479554  0.48763312     1.25400
C315        C  0.18269376  0.50541340  0.98693238     0.90000
C316        C  0.32663842  0.49475300  0.48975944     0.90000
C317        C  0.24912784  0.49663227  0.05956352     0.90000
C318        C  0.25477033  0.49724603  0.42072893     0.90200
O319        O  0.29604683  0.53328150  0.23633924    -0.72100
O320        O  0.18796142  0.52116994  0.24333819    -0.72200
O321        O  0.24443018  0.52715681  0.29241211    -0.72200
O322        O  0.23999701  0.52735612  0.18777039    -0.72300
O323        O  0.24422476  0.96300926  0.21017665    -0.72200
O324        O  0.24023963  0.97109919  0.31460363    -0.72200
O325        O  0.18795585  0.97393121  0.26128284    -0.72200
O326        O  0.29624440  0.96064866  0.26409009    -0.72200
Ni327      Ni  0.24175856  0.52951505  0.23998234     1.25400
Ni328      Ni  0.24187060  0.96493858  0.26269827     1.25400
C329        C  0.31746654  0.98986082  0.26134574     0.90000
C330        C  0.17387090  0.00748026  0.25724666     0.90000
C331        C  0.24374960  0.00366070  0.32912313     0.90000
C332        C  0.24840717  0.99304277  0.19042282     0.90200
C333        C  0.24440061  0.00573732  0.36835999    -0.11000
C334        C  0.24595922  0.00474885  0.40132941    -0.12600
C335        C  0.24972311  0.99011635  0.15125073    -0.11000
C336        C  0.25025377  0.98992944  0.11823045    -0.12600
C337        C  0.99667832  0.74161453  0.39846390    -0.11000
C338        C  0.48387250  0.74826296  0.36230006    -0.12600
C339        C  0.99450132  0.74798745  0.11557066    -0.11000
C340        C  0.48709817  0.75093393  0.14506656    -0.12600
C341        C  0.10716831  0.99145414  0.27137344    -0.14200
C342        C  0.13265478  0.01271606  0.25289240    -0.29300
H343        H  0.11779569  0.52848684  0.21573866     0.14900
H344        H  0.12299845  0.03460671  0.23386961     0.15400
C345        C  0.38272886  0.00485747  0.24151131    -0.14200
C346        C  0.35888956  0.98477255  0.26316049    -0.29300
H347        H  0.37009421  0.46275825  0.27052179     0.14900
H348        H  0.37001704  0.96351435  0.28207127     0.15400
C349        C  0.49674580  0.88581963  0.23768835    -0.14200
C350        C  0.47385125  0.86250703  0.25708570    -0.29300
H351        H  0.02263111  0.86960568  0.21952632     0.14900
H352        H  0.45155639  0.87419077  0.27485375     0.15400
C353        C  0.47944545  0.61048319  0.26898340    -0.14200
C354        C  0.49848878  0.63573555  0.24807373    -0.29300
H355        H  0.46086469  0.62005299  0.29125741     0.14900
H356        H  0.03127562  0.62096782  0.23277401     0.15400
C357        C  0.11700932  0.48955861  0.50921333    -0.14200
C358        C  0.14051058  0.51093152  0.48837849    -0.29300
H359        H  0.12703834  0.96351371  0.47981631     0.14900
H360        H  0.12977941  0.53162761  0.96633347     0.15400
C361        C  0.36832847  0.49085889  0.49100240    -0.14200
C362        C  0.39159660  0.51138312  0.46909991    -0.29300
H363        H  0.37722249  0.45983328  0.01610250     0.14900
H364        H  0.37617457  0.03016040  0.46858921     0.15400
C365        C  0.00966186  0.86112413  0.00145453    -0.14200
C366        C  0.99234449  0.88624488  0.02375283    -0.29300
H367        H  0.45650436  0.87505728  0.98323905     0.14900
H368        H  0.97172471  0.87690113  0.54133185     0.15400
C369        C  0.01000212  0.61173194  0.99489676    -0.14200
C370        C  0.98393648  0.63493569  0.01044253    -0.29300
H371        H  0.52617090  0.63317395  0.45969665     0.14900
H372        H  0.95880105  0.62320990  0.02395244     0.15400
O373        O  0.05418279  0.49367492  0.53470957    -0.72100
O374        O  0.44252556  0.99974052  0.52323020    -0.72200
O375        O  0.99468891  0.94982640  0.53853734    -0.72200
O376        O  0.50259911  0.55746641  0.50985907    -0.72300
O377        O  0.01003137  0.55089441  0.96822151    -0.72200
O378        O  0.49238692  0.94239082  0.98046155    -0.72200
O379        O  0.45764368  0.50761178  0.96103216    -0.72200
O380        O  0.05097935  0.99026889  0.96918150    -0.72200
Ni381      Ni  0.00134360  0.00372585  0.53225445     1.25400
Ni382      Ni  0.49259578  0.99569910  0.96941649     1.25000
C383        C  0.07011177  0.99451303  0.99819084     0.90000
C384        C  0.43337887  0.50168796  0.98708853     0.90000
C385        C  0.99270572  0.92769241  0.51110181     0.90000
C386        C  0.00845357  0.57060103  0.49919671     0.90200
O387        O  0.44097770  0.99970090  0.77612094    -0.72100
O388        O  0.06488091  0.50102171  0.77346146    -0.72200
O389        O  0.49969619  0.55118117  0.78871406    -0.72200
O390        O  0.99169883  0.94424339  0.77594336    -0.72300
O391        O  0.50304051  0.95391415  0.71349961    -0.72200
O392        O  0.99817149  0.56048687  0.73034139    -0.72200
O393        O  0.05914810  0.00261972  0.73096536    -0.72200
O394        O  0.45440212  0.50307751  0.71939794    -0.72200
Ni395      Ni  0.49461477  0.99811019  0.78286555     1.25400
Ni396      Ni  0.50263289  0.00822657  0.71830483     1.25400
C397        C  0.42681276  0.00521629  0.74452374     0.90000
C398        C  0.06979318  0.99815564  0.76404141     0.90000
C399        C  0.49892745  0.57397514  0.76110114     0.90000
C400        C  0.49929622  0.93164666  0.74132939     0.90200
O401        O  0.45736765  0.69789384  0.50738526    -0.72100
O402        O  0.45686049  0.80051908  0.00053418    -0.72200
O403        O  0.46921625  0.74595835  0.95009087    -0.72200
O404        O  0.45745852  0.75313968  0.55786564    -0.72300
O405        O  0.02600834  0.74975184  0.55889248    -0.72200
O406        O  0.02786687  0.74387552  0.95405012    -0.72200
O407        O  0.03113157  0.79965156  0.50150832    -0.72200
O408        O  0.02161414  0.69045252  0.00743944    -0.72200
Ni409      Ni  0.45314150  0.75220261  0.50580493     1.25400
Ni410      Ni  0.02917180  0.74551987  0.50652477     1.25400
C411        C  0.98819712  0.67649073  0.00867829     0.90000
C412        C  0.00096018  0.82028543  0.50043473     0.90000
C413        C  0.99636462  0.74778776  0.93754702     0.90000
C414        C  0.99405395  0.75356562  0.57605757     0.90200
O415        O  0.01864180  0.80883928  0.75719360    -0.72100
O416        O  0.03203093  0.70086847  0.75254344    -0.72200
O417        O  0.02424002  0.75756125  0.70314385    -0.72200
O418        O  0.02657890  0.75217019  0.80769269    -0.72300
O419        O  0.46977183  0.74766800  0.80818552    -0.72200
O420        O  0.46371798  0.75031409  0.70363442    -0.72200
O421        O  0.47463373  0.69496658  0.75500095    -0.72200
O422        O  0.45882201  0.80296034  0.75758160    -0.72200
Ni423      Ni  0.02760560  0.75508918  0.75518757     1.25400
Ni424      Ni  0.46447376  0.74866808  0.75621219     1.25400
C425        C  0.48758383  0.82481069  0.75516167     0.90000
C426        C  0.50854334  0.68154997  0.75148596     0.90000
C427        C  0.49412774  0.75473289  0.68418843     0.90000
C428        C  0.50209392  0.75177664  0.82280552     0.90200
O429        O  0.19063933  0.97474942  0.01022453    -0.72100
O430        O  0.30250565  0.96039217  0.50690153    -0.72200
O431        O  0.24897849  0.96226443  0.56105410    -0.72200
O432        O  0.24293477  0.97430259  0.95507496    -0.72300
O433        O  0.26182727  0.52824446  0.93753685    -0.72200
O434        O  0.25596554  0.53547021  0.54022470    -0.72200
O435        O  0.31192248  0.52135698  0.99213951    -0.72200
O436        O  0.20235071  0.53710214  0.48763519    -0.72200
Ni437      Ni  0.24449220  0.96659609  0.00701667     1.25400
Ni438      Ni  0.25811367  0.53037631  0.98969826     1.25400
C439        C  0.18217202  0.50711832  0.49008301     0.90000
C440        C  0.32611498  0.48765498  0.99387939     0.90000
C441        C  0.25335803  0.50485032  0.55940217     0.90000
C442        C  0.25957608  0.49679315  0.92071277     0.90200
O443        O  0.30862512  0.54017103  0.73606435    -0.72100
O444        O  0.20049975  0.52897149  0.74493475    -0.72200
O445        O  0.25783544  0.53270405  0.79304423    -0.72200
O446        O  0.25127538  0.53641996  0.68849868    -0.72300
O447        O  0.24813115  0.96505068  0.71104212    -0.72200
O448        O  0.24259298  0.97550840  0.81529391    -0.72200
O449        O  0.19123939  0.97699883  0.76130564    -0.72200
O450        O  0.29939566  0.96383914  0.76564472    -0.72200
Ni451      Ni  0.25430688  0.53684717  0.74072702     1.25400
Ni452      Ni  0.24507176  0.96809521  0.76353235     1.25400
C453        C  0.32057700  0.99303435  0.76240153     0.90000
C454        C  0.17720736  0.01045693  0.75652567     0.90000
C455        C  0.24549300  0.00848517  0.82913794     0.90000
C456        C  0.25248423  0.99471077  0.69076605     0.90200
C457        C  0.24456426  0.01169082  0.86830625    -0.11000
C458        C  0.24466034  0.01121169  0.90133407    -0.12600
C459        C  0.25382389  0.99116379  0.65163781    -0.11000
C460        C  0.25402296  0.99056307  0.61862231    -0.12600
C461        C  0.99644475  0.74742787  0.89831606    -0.11000
C462        C  0.50403330  0.75172885  0.86196059    -0.12600
C463        C  0.99313734  0.75544179  0.61519994    -0.11000
C464        C  0.49217876  0.75499637  0.64503788    -0.12600
C465        C  0.11062699  0.99502786  0.77146494    -0.14200
C466        C  0.13604689  0.01562879  0.75219860    -0.29300
H467        H  0.12999108  0.53844796  0.71944601     0.14900
H468        H  0.12635726  0.03722229  0.73287943     0.15400
C469        C  0.38530684  0.00764998  0.74122605    -0.14200
C470        C  0.36199617  0.98812237  0.76389611    -0.29300
H471        H  0.38275902  0.46753720  0.76595468     0.14900
H472        H  0.37351102  0.96756967  0.78329196     0.15400
C473        C  0.50167813  0.89030006  0.73612851    -0.14200
C474        C  0.48166612  0.86614728  0.75745024    -0.29300
H475        H  0.02176332  0.87642348  0.72100549     0.14900
H476        H  0.46045250  0.87693526  0.77688676     0.15400
C477        C  0.49365925  0.61499005  0.76700868    -0.14200
C478        C  0.51480657  0.64031371  0.74819893    -0.29300
H479        H  0.47297311  0.62447969  0.78756037     0.14900
H480        H  0.02526094  0.62977281  0.72383520     0.15400
C481        C  0.11780110  0.49066821  0.00744644    -0.14200
C482        C  0.14121974  0.51041898  0.98511586    -0.29300
H483        H  0.12434982  0.97204658  0.97565212     0.14900
H484        H  0.12881744  0.53269279  0.47032035     0.15400
C485        C  0.36733065  0.48231502  0.99784240    -0.14200
C486        C  0.39250683  0.50413487  0.97956428    -0.29300
H487        H  0.38019470  0.46971989  0.50961227     0.14900
H488        H  0.37478984  0.02692297  0.04101470     0.15400
C489        C  0.00485057  0.86143075  0.49495858    -0.14200
C490        C  0.98784355  0.88662581  0.51736302    -0.29300
H491        H  0.46124210  0.87910112  0.52405619     0.14900
H492        H  0.97586989  0.87651291  0.04748835     0.15400
C493        C  0.01207171  0.61214436  0.49837785    -0.14200
C494        C  0.98685345  0.63501164  0.51559730    -0.29300
H495        H  0.47254076  0.62244300  0.03824705     0.14900
H496        H  0.96237842  0.62297705  0.52998990     0.15400
O497        O  0.55673309  0.00363266  0.02152905    -0.72100
O498        O  0.94755560  0.50084105  0.02981664    -0.72200
O499        O  0.49961373  0.44155814  0.02142303    -0.72200
O500        O  0.00214469  0.05761746  0.02115374    -0.72300
O501        O  0.50552092  0.06248160  0.47759673    -0.72200
O502        O  0.00396893  0.44414951  0.46975891    -0.72200
O503        O  0.94677029  0.00062127  0.47067383    -0.72200
O504        O  0.56263018  0.50126144  0.45134449    -0.72200
Ni505      Ni  0.49645479  0.49448200  0.03239460     1.25400
Ni506      Ni  0.00749070  0.49863287  0.46716784     1.25000
C507        C  0.57717020  0.49988509  0.48310675     0.90000
C508        C  0.92941431  0.00782052  0.50108815     0.90000
C509        C  0.50802565  0.42985903  0.98918215     0.90000
C510        C  0.49811783  0.07243531  0.98941792     0.90200
O511        O  0.94486458  0.48411020  0.28504950    -0.72100
O512        O  0.54587815  0.99130084  0.28786134    -0.72200
O513        O  0.98640893  0.04556476  0.28284943    -0.72200
O514        O  0.50150750  0.44002064  0.27501736    -0.72300
O515        O  0.99558287  0.44807966  0.20872294    -0.72200
O516        O  0.50038046  0.05711895  0.22954217    -0.72200
O517        O  0.54895982  0.51077383  0.22272810    -0.72200
O518        O  0.95016050  0.99861408  0.20805699    -0.72200
Ni519      Ni  0.99890168  0.48834785  0.28042477     1.25400
Ni520      Ni  0.99107492  0.50190834  0.21669094     1.25400
C521        C  0.92339899  0.48945938  0.25763938     0.90000
C522        C  0.56650290  0.50739103  0.25287586     0.90000
C523        C  0.99295727  0.06664767  0.25459501     0.90000
C524        C  0.99996622  0.42442401  0.23530230     0.90200
O525        O  0.97886466  0.19039766  0.98986796    -0.72100
O526        O  0.98080443  0.30609864  0.48749003    -0.72200
O527        O  0.97484582  0.24854437  0.43926815    -0.72200
O528        O  0.96429069  0.24570462  0.03969836    -0.72300
O529        O  0.52988247  0.25548149  0.05246911    -0.72200
O530        O  0.53390868  0.25749375  0.44518492    -0.72200
O531        O  0.52786826  0.30866054  0.99808511    -0.72200
O532        O  0.54119792  0.20399211  0.49781710    -0.72200
Ni533      Ni  0.96957288  0.24423767  0.98719456     1.25400
Ni534      Ni  0.53694497  0.25476469  0.00034912     1.25400
C535        C  0.51222762  0.18234664  0.49891089     0.90000
C536        C  0.49409632  0.32276888  0.99782930     0.90000
C537        C  0.50255097  0.25288221  0.42900380     0.90000
C538        C  0.49721484  0.25073382  0.06780107     0.90200
O539        O  0.52458635  0.30612371  0.24725673    -0.72100
O540        O  0.53692835  0.19786935  0.24479680    -0.72200
O541        O  0.52791705  0.25337579  0.19403269    -0.72200
O542        O  0.53325653  0.25071455  0.29871167    -0.72300
O543        O  0.96906257  0.23976136  0.29600509    -0.72200
O544        O  0.96000807  0.24401424  0.19161907    -0.72200
O545        O  0.97111971  0.18774058  0.24232987    -0.72200
O546        O  0.95820576  0.29599591  0.24637187    -0.72200
Ni547      Ni  0.53294874  0.25221606  0.24608957     1.25400
Ni548      Ni  0.96233977  0.24163203  0.24419141     1.25400
C549        C  0.98747646  0.31716801  0.24379514     0.90000
C550        C  0.00463319  0.17346771  0.23826044     0.90000
C551        C  0.98996867  0.24805778  0.17143555     0.90000
C552        C  0.00189555  0.24270229  0.30988400     0.90200
O553        O  0.69557772  0.47680090  0.50942123    -0.72100
O554        O  0.80417917  0.46313597  0.01549036    -0.72200
O555        O  0.74482610  0.46886863  0.06350703    -0.72200
O556        O  0.75244553  0.47225008  0.45876660    -0.72300
O557        O  0.75546550  0.03641096  0.44106859    -0.72200
O558        O  0.75263023  0.02323605  0.04883525    -0.72200
O559        O  0.80886403  0.02704258  0.49293043    -0.72200
O560        O  0.69784308  0.03714564  0.99998208    -0.72200
Ni561      Ni  0.74957880  0.46904420  0.51117010     1.25400
Ni562      Ni  0.75514749  0.03638736  0.49362067     1.25400
C563        C  0.67643771  0.00826888  0.99744274     0.90000
C564        C  0.82303019  0.99344560  0.49018196     0.90000
C565        C  0.74894223  0.98979780  0.06253896     0.90000
C566        C  0.75036372  0.00585483  0.42331783     0.90200
O567        O  0.80486704  0.01810106  0.23905942    -0.72100
O568        O  0.69681821  0.03449803  0.23916409    -0.72200
O569        O  0.75078223  0.03205523  0.29150593    -0.72200
O570        O  0.75118593  0.02084328  0.18738187    -0.72300
O571        O  0.74394537  0.46793330  0.21043133    -0.72200
O572        O  0.75182428  0.47148525  0.31479960    -0.72200
O573        O  0.69377095  0.46494327  0.26837808    -0.72200
O574        O  0.80176412  0.47424272  0.25750747    -0.72200
Ni575      Ni  0.75118646  0.02861427  0.23905693     1.25400
Ni576      Ni  0.74800157  0.46738088  0.26283339     1.25400
C577        C  0.81628991  0.50729785  0.25383811     0.90000
C578        C  0.67279273  0.49494300  0.26838024     0.90000
C579        C  0.74988713  0.50371041  0.33055160     0.90000
C580        C  0.74014392  0.49905865  0.19220509     0.90200
C581        C  0.75251897  0.50497409  0.36963761    -0.11000
C582        C  0.75387852  0.50503857  0.40257327    -0.12600
C583        C  0.74010890  0.49835863  0.15297831    -0.11000
C584        C  0.74231152  0.49917977  0.12001240    -0.12600
C585        C  0.50304783  0.25075166  0.38988382    -0.11000
C586        C  0.00484579  0.24197154  0.34903256    -0.12600
C587        C  0.49415792  0.25072993  0.10703063    -0.11000
C588        C  0.98711362  0.24914086  0.13225592    -0.12600
C589        C  0.60782080  0.51309990  0.25235357    -0.14200
C590        C  0.63128539  0.49094896  0.27193080    -0.29300
H591        H  0.62011566  0.97275705  0.28423091     0.14900
H592        H  0.61996960  0.46751286  0.28830114     0.15400
C593        C  0.88209605  0.48595992  0.26319384    -0.14200
C594        C  0.85764557  0.51087757  0.24819177    -0.29300
H595        H  0.87537761  0.01657582  0.20459159     0.14900
H596        H  0.86829546  0.53515107  0.23257891     0.15400
C597        C  0.00291125  0.38350243  0.22791984    -0.14200
C598        C  0.98257420  0.35847236  0.24793967    -0.29300
H599        H  0.52972582  0.37677138  0.21620123     0.14900
H600        H  0.96149229  0.36862536  0.26783614     0.15400
C601        C  0.98934988  0.10824105  0.25781441    -0.14200
C602        C  0.00983852  0.13196031  0.23639792    -0.29300
H603        H  0.96986778  0.11964093  0.27853771     0.14900
H604        H  0.53255447  0.12442576  0.22415212     0.15400
C605        C  0.61372794  0.99618106  0.51177254    -0.14200
C606        C  0.63807106  0.01827719  0.49283122    -0.29300
H607        H  0.63342400  0.47807426  0.46533686     0.14900
H608        H  0.62461614  0.03529891  0.02041772     0.15400
C609        C  0.86461424  0.98813144  0.48793830    -0.14200
C610        C  0.88801884  0.01346037  0.50222174    -0.29300
H611        H  0.87350098  0.96275113  0.97056522     0.14900
H612        H  0.87896355  0.52419422  0.46722041     0.15400
C613        C  0.48831417  0.36414737  0.99993901    -0.14200
C614        C  0.51179713  0.38874162  0.98296775    -0.29300
H615        H  0.97104283  0.37345290  0.96328487     0.14900
H616        H  0.52316481  0.37760024  0.45183966     0.15400
C617        C  0.49628013  0.11381495  0.98309987    -0.14200
C618        C  0.51742939  0.13757934  0.00226948    -0.29300
H619        H  0.03298908  0.11985611  0.45967758     0.14900
H620        H  0.53898798  0.12627280  0.02041443     0.15400
O621        O  0.55026587  0.99568364  0.53535301    -0.72100
O622        O  0.94597271  0.50261186  0.52569617    -0.72200
O623        O  0.50089867  0.44847170  0.50621782    -0.72200
O624        O  0.00732122  0.05670557  0.52160442    -0.72300
O625        O  0.49295309  0.05000767  0.96269940    -0.72200
O626        O  0.00308230  0.44237729  0.97450286    -0.72200
O627        O  0.94216832  0.99370007  0.97561701    -0.72200
O628        O  0.56387969  0.50674992  0.98178421    -0.72200
Ni629      Ni  0.50162508  0.50286162  0.51023341     1.25400
Ni630      Ni  0.00654774  0.49669619  0.96916061     1.25000
C631        C  0.57453447  0.49990217  0.01451114     0.90000
C632        C  0.92574955  0.00219305  0.00613603     0.90000
C633        C  0.50351430  0.43210461  0.47511306     0.90000
C634        C  0.50004469  0.07487186  0.51013151     0.90200
O635        O  0.95732841  0.48810059  0.78535930    -0.72100
O636        O  0.54905321  0.99660380  0.78533513    -0.72200
O637        O  0.99253189  0.05279244  0.78510319    -0.72200
O638        O  0.51310933  0.44435496  0.77296392    -0.72300
O639        O  0.01073607  0.45455902  0.70941945    -0.72200
O640        O  0.50235414  0.06159527  0.72738903    -0.72200
O641        O  0.56247797  0.51435171  0.72158772    -0.72200
O642        O  0.95267011  0.00762491  0.71107098    -0.72200
Ni643      Ni  0.01119648  0.49438274  0.78158805     1.25400
Ni644      Ni  0.00391088  0.50811910  0.71783474     1.25400
C645        C  0.93615057  0.49278560  0.75764739     0.90000
C646        C  0.57940760  0.51065007  0.75204710     0.90000
C647        C  0.99992943  0.07356210  0.75679109     0.90000
C648        C  0.01562913  0.43086155  0.73587251     0.90200
O649        O  0.96990138  0.19834178  0.49650914    -0.72100
O650        O  0.96487891  0.29863754  0.98444380    -0.72200
O651        O  0.97921549  0.24330417  0.93551539    -0.72200
O652        O  0.97586469  0.25578242  0.54382401    -0.72300
O653        O  0.53374281  0.25854838  0.54984617    -0.72200
O654        O  0.53965743  0.25353679  0.94797633    -0.72200
O655        O  0.52626451  0.31221478  0.49613588    -0.72200
O656        O  0.54133981  0.20034417  0.00252122    -0.72200
Ni657      Ni  0.97311864  0.25244910  0.49171184     1.25400
Ni658      Ni  0.53600558  0.25838310  0.49731589     1.25400
C659        C  0.51233597  0.17908488  0.99970637     0.90000
C660        C  0.49241034  0.32613304  0.49718639     0.90000
C661        C  0.50971185  0.25111811  0.92902921     0.90000
C662        C  0.50235488  0.25484476  0.56787212     0.90200
O663        O  0.53585258  0.30971886  0.74677696    -0.72100
O664        O  0.54557784  0.20102578  0.74454924    -0.72200
O665        O  0.53775100  0.25676622  0.69376802    -0.72200
O666        O  0.54370635  0.25394250  0.79836772    -0.72300
O667        O  0.98401404  0.24676783  0.79578191    -0.72200
O668        O  0.97837441  0.25059412  0.69100112    -0.72200
O669        O  0.98580665  0.19454608  0.74257076    -0.72200
O670        O  0.97600101  0.30276033  0.74554021    -0.72200
Ni671      Ni  0.54301327  0.25553266  0.74575132     1.25400
Ni672      Ni  0.97879846  0.24850515  0.74372878     1.25400
C673        C  0.00577198  0.32320107  0.74397500     0.90000
C674        C  0.01887156  0.17908667  0.73988293     0.90000
C675        C  0.00910788  0.25362626  0.67170657     0.90000
C676        C  0.01655167  0.24871465  0.81051626     0.90200
O677        O  0.69623144  0.47690226  0.00781842    -0.72100
O678        O  0.80400423  0.46585652  0.51304933    -0.72200
O679        O  0.74697789  0.47034612  0.56358808    -0.72200
O680        O  0.75542445  0.47092207  0.95896646    -0.72300
O681        O  0.75079688  0.03711084  0.94448179    -0.72200
O682        O  0.75421398  0.03168882  0.54611507    -0.72200
O683        O  0.80576234  0.02335632  0.99432401    -0.72200
O684        O  0.70089961  0.04140862  0.49378697    -0.72200
Ni685      Ni  0.74995155  0.46769010  0.01135909     1.25400
Ni686      Ni  0.75205024  0.03245223  0.99704267     1.25400
C687        C  0.67943197  0.01236164  0.49435462     0.90000
C688        C  0.81992942  0.98996339  0.98993626     0.90000
C689        C  0.75169450  0.99931672  0.56239009     0.90000
C690        C  0.74681518  0.00805891  0.92421059     0.90200
O691        O  0.80686571  0.02865314  0.74190096    -0.72100
O692        O  0.69860084  0.04322977  0.73886235    -0.72200
O693        O  0.75065907  0.04033460  0.79298542    -0.72200
O694        O  0.75477156  0.03201479  0.68848539    -0.72300
O695        O  0.75637617  0.46970687  0.71011430    -0.72200
O696        O  0.76428425  0.47181517  0.81442409    -0.72200
O697        O  0.70628656  0.46598976  0.76782840    -0.72200
O698        O  0.81440382  0.47566929  0.75718339    -0.72200
Ni699      Ni  0.75300590  0.03830811  0.74040383     1.25400
Ni700      Ni  0.76058055  0.46853242  0.76242427     1.25400
C701        C  0.82878065  0.50885047  0.75394279     0.90000
C702        C  0.68530589  0.49601039  0.76803127     0.90000
C703        C  0.76196609  0.50373246  0.83067621     0.90000
C704        C  0.75206293  0.50096004  0.69225130     0.90200
C705        C  0.76341104  0.50417135  0.86988489    -0.11000
C706        C  0.76293134  0.50352827  0.90289480    -0.12600
C707        C  0.75018880  0.50031452  0.65310905    -0.11000
C708        C  0.74978522  0.50059419  0.62013788    -0.12600
C709        C  0.51322870  0.25096109  0.88986809    -0.11000
C710        C  0.01853407  0.24753471  0.84970160    -0.12600
C711        C  0.50251688  0.25513774  0.60708143    -0.11000
C712        C  0.00758080  0.25445579  0.63241742    -0.12600
C713        C  0.62075309  0.51577836  0.75229499    -0.14200
C714        C  0.64374158  0.49216471  0.77086871    -0.29300
H715        H  0.62320447  0.97882316  0.78091745     0.14900
H716        H  0.63199831  0.46797004  0.78582573     0.15400
C717        C  0.89492589  0.48794969  0.76261266    -0.14200
C718        C  0.87009188  0.51289890  0.74827617    -0.29300
H719        H  0.87843151  0.02779332  0.70847943     0.14900
H720        H  0.88042077  0.53782714  0.73345710     0.15400
C721        C  0.02004343  0.39004548  0.72823226    -0.14200
C722        C  0.00125676  0.36441180  0.74889214    -0.29300
H723        H  0.54036371  0.38061800  0.71364281     0.14900
H724        H  0.98080566  0.37404899  0.76962163     0.15400
C725        C  0.99930664  0.11523920  0.75997777    -0.14200
C726        C  0.02227447  0.13735538  0.73921732    -0.29300
H727        H  0.97969726  0.12803956  0.77980252     0.14900
H728        H  0.54095072  0.12739955  0.72626350     0.15400
C729        C  0.61063311  0.99365370  0.98233346    -0.14200
C730        C  0.63513775  0.01373757  0.00157124    -0.29300
H731        H  0.62470944  0.47845494  0.04411923     0.14900
H732        H  0.62737200  0.04167231  0.47610909     0.15400
C733        C  0.86145286  0.98481960  0.98801017    -0.14200
C734        C  0.88411453  0.00574890  0.00852372    -0.29300
H735        H  0.87620287  0.96235069  0.47570582     0.14900
H736        H  0.87907417  0.52376931  0.97422697     0.15400
C737        C  0.48681096  0.36772729  0.49734719    -0.14200
C738        C  0.50564038  0.39026831  0.47343447    -0.29300
H739        H  0.04201312  0.37344223  0.46661250     0.14900
H740        H  0.53408897  0.37852068  0.96437880     0.15400
C741        C  0.49714887  0.11619491  0.51614000    -0.14200
C742        C  0.51814979  0.14091463  0.49638204    -0.29300
H743        H  0.97979999  0.12047998  0.95792941     0.14900
H744        H  0.54033803  0.13048131  0.47778409     0.15400
O745        O  0.55026219  0.49431086  0.04064811    -0.72100
O746        O  0.94495306  0.00857946  0.03467624    -0.72200
O747        O  0.50314443  0.95202120  0.03956246    -0.72200
O748        O  0.00256923  0.55405141  0.02895620    -0.72300
O749        O  0.51215239  0.56015065  0.44931270    -0.72200
O750        O  0.99487616  0.94059374  0.47821374    -0.72200
O751        O  0.95297028  0.50325634  0.46483800    -0.72200
O752        O  0.55926448  0.00689642  0.47552889    -0.72200
Ni753      Ni  0.50346665  0.00627629  0.03281754     1.25400
Ni754      Ni  0.00104196  0.99348340  0.46767339     1.25000
C755        C  0.57242355  0.00014947  0.50738639     0.90000
C756        C  0.93170081  0.50432730  0.49378151     0.90000
C757        C  0.49799219  0.92956624  0.01287787     0.90000
C758        C  0.49939429  0.57200559  0.01255453     0.90200
O759        O  0.93584646  0.99126004  0.26753053    -0.72100
O760        O  0.54871573  0.49956730  0.28301464    -0.72200
O761        O  0.99435491  0.54210982  0.28841689    -0.72200
O762        O  0.49094114  0.94018906  0.27536834    -0.72300
O763        O  0.00570632  0.94377670  0.21451239    -0.72200
O764        O  0.48806139  0.55711019  0.23043436    -0.72200
O765        O  0.55403190  0.00170147  0.22782675    -0.72200
O766        O  0.93726705  0.49734509  0.22571638    -0.72200
Ni767      Ni  0.98814383  0.99098831  0.28053567     1.25400
Ni768      Ni  0.00388933  0.99832766  0.21685109     1.25400
C769        C  0.92559129  0.99535266  0.23430801     0.90000
C770        C  0.56769036  0.99557762  0.25957673     0.90000
C771        C  0.98975479  0.56571183  0.26185253     0.90000
C772        C  0.99898142  0.92270773  0.24272735     0.90200
O773        O  0.95850751  0.69800578  0.00896736    -0.72100
O774        O  0.96784585  0.80562338  0.50289459    -0.72200
O775        O  0.96434398  0.74758568  0.45484795    -0.72200
O776        O  0.96386509  0.75234616  0.05982385    -0.72300
O777        O  0.52457811  0.75419790  0.05723289    -0.72200
O778        O  0.51685376  0.75293389  0.44936603    -0.72200
O779        O  0.51913080  0.80967008  0.00583183    -0.72200
O780        O  0.52069725  0.69910357  0.50243306    -0.72200
Ni781      Ni  0.96219196  0.75249241  0.00770459     1.25400
Ni782      Ni  0.53026309  0.75626857  0.00493732     1.25400
C783        C  0.48955997  0.68063420  0.50520969     0.90000
C784        C  0.48518075  0.82276794  0.00289322     0.90000
C785        C  0.48453079  0.75147145  0.43428239     0.90000
C786        C  0.49193522  0.75066670  0.07299447     0.90200
O787        O  0.51142950  0.80600805  0.25368284    -0.72100
O788        O  0.52283744  0.69778321  0.25185344    -0.72200
O789        O  0.51769253  0.75329680  0.20091082    -0.72200
O790        O  0.51636899  0.75054608  0.30563539    -0.72300
O791        O  0.96432634  0.73900197  0.31059607    -0.72200
O792        O  0.96236494  0.74276921  0.20587029    -0.72200
O793        O  0.96983354  0.68682464  0.25712804    -0.72200
O794        O  0.95672149  0.79501649  0.25998995    -0.72200
Ni795      Ni  0.51932260  0.75208703  0.25310797     1.25400
Ni796      Ni  0.96103201  0.74066353  0.25844548     1.25400
C797        C  0.98605147  0.81614793  0.25861816     0.90000
C798        C  0.00346511  0.67255698  0.25457978     0.90000
C799        C  0.99362493  0.74662825  0.18763071     0.90000
C800        C  0.99620377  0.74187910  0.32634333     0.90200
O801        O  0.69337124  0.97850583  0.49487753    -0.72100
O802        O  0.79864478  0.96099527  0.98697925    -0.72200
O803        O  0.74526696  0.96080138  0.04218229    -0.72200
O804        O  0.74600585  0.97382544  0.43974719    -0.72300
O805        O  0.75537280  0.53560008  0.45910739    -0.72200
O806        O  0.75177839  0.53184530  0.06415513    -0.72200
O807        O  0.80963332  0.52894906  0.51034078    -0.72200
O808        O  0.70340613  0.53985799  0.00752453    -0.72200
Ni809      Ni  0.74722957  0.96904395  0.49199541     1.25400
Ni810      Ni  0.75541296  0.53666814  0.51156344     1.25400
C811        C  0.68220239  0.51068425  0.00628656     0.90000
C812        C  0.82460575  0.49557676  0.51203026     0.90000
C813        C  0.74640411  0.50005889  0.08086808     0.90000
C814        C  0.75409086  0.50427306  0.44183268     0.90200
O815        O  0.79542621  0.53740623  0.25436073    -0.72100
O816        O  0.68725841  0.52808826  0.26510323    -0.72200
O817        O  0.74537346  0.53468784  0.31229516    -0.72200
O818        O  0.73757505  0.53115284  0.20808142    -0.72300
O819        O  0.74249938  0.95841564  0.19446384    -0.72200
O820        O  0.74193017  0.96966679  0.29880934    -0.72200
O821        O  0.68815051  0.97219028  0.24716795    -0.72200
O822        O  0.79601355  0.95582818  0.24721211    -0.72200
Ni823      Ni  0.74113412  0.53509735  0.25998564     1.25400
Ni824      Ni  0.74179495  0.96178315  0.24706751     1.25400
C825        C  0.81810092  0.98428348  0.24355961     0.90000
C826        C  0.67477838  0.00600682  0.24320495     0.90000
C827        C  0.74666056  0.00264365  0.31214532     0.90000
C828        C  0.74707389  0.98786445  0.17389652     0.90200
C829        C  0.74786071  0.00639742  0.35116487    -0.11000
C830        C  0.74921436  0.00731409  0.38408745    -0.12600
C831        C  0.74770168  0.98433784  0.13474157    -0.11000
C832        C  0.74846096  0.98509303  0.10169095    -0.12600
C833        C  0.48340762  0.74972831  0.39520339    -0.11000
C834        C  0.99686228  0.74114978  0.36551749    -0.12600
C835        C  0.48909034  0.75079899  0.11213822    -0.11000
C836        C  0.99338559  0.74746638  0.14849984    -0.12600
C837        C  0.60918559  0.99211344  0.26344844    -0.14200
C838        C  0.63334739  0.01221343  0.24209689    -0.29300
H839        H  0.61954861  0.53379868  0.23300373     0.14900
H840        H  0.62247271  0.03399937  0.22360009     0.15400
C841        C  0.88475418  0.99777512  0.22651941    -0.14200
C842        C  0.85930445  0.97800935  0.24663411    -0.29300
H843        H  0.87166665  0.46385723  0.28173986     0.14900
H844        H  0.86899424  0.95687931  0.26641129     0.15400
C845        C  0.00239575  0.88114460  0.23950937    -0.14200
C846        C  0.98085484  0.85763231  0.26011103    -0.29300
H847        H  0.51670769  0.87427692  0.21746367     0.14900
H848        H  0.95822145  0.86904382  0.27764985     0.15400
C849        C  0.98646672  0.60651232  0.26921618    -0.14200
C850        C  0.00861289  0.63129912  0.25091504    -0.29300
H851        H  0.96600517  0.61626659  0.28985530     0.14900
H852        H  0.51985846  0.62580638  0.22835120     0.15400
C853        C  0.61867174  0.49551778  0.48562706    -0.14200
C854        C  0.63877245  0.51435304  0.51008914    -0.29300
H855        H  0.62432048  0.97503512  0.53108018     0.14900
H856        H  0.63180395  0.53730625  0.98163020     0.15400
C857        C  0.86615039  0.49107517  0.51423456    -0.14200
C858        C  0.89011186  0.50815701  0.49030972    -0.29300
H859        H  0.87781548  0.46666521  0.03843823     0.14900
H860        H  0.87645429  0.03738809  0.51754354     0.15400
C861        C  0.47880226  0.86414309  0.00075478    -0.14200
C862        C  0.50020712  0.88824128  0.01926858    -0.29300
H863        H  0.02886751  0.87106713  0.97978293     0.14900
H864        H  0.52059382  0.87904606  0.46121152     0.15400
C865        C  0.49441282  0.61304985  0.01880466    -0.14200
C866        C  0.51608421  0.63861006  0.00093618    -0.29300
H867        H  0.03420278  0.62433441  0.48081413     0.14900
H868        H  0.54006901  0.62908356  0.98401022     0.15400
O869        O  0.55622688  0.50122709  0.51225934    -0.72100
O870        O  0.94745360  0.01066577  0.53086536    -0.72200
O871        O  0.49627092  0.94455144  0.52122276    -0.72200
O872        O  0.00334977  0.55290599  0.52977374    -0.72300
O873        O  0.50823209  0.56037120  0.98036288    -0.72200
O874        O  0.99618135  0.93900704  0.98284039    -0.72200
O875        O  0.95213884  0.50109242  0.96878918    -0.72200
O876        O  0.54683601  0.99317362  0.96240915    -0.72200
Ni877      Ni  0.49594962  0.99770778  0.53143269     1.25400
Ni878      Ni  0.99646153  0.99182339  0.97018516     1.25000
C879        C  0.56940132  0.99728593  0.98902402     0.90000
C880        C  0.93205541  0.50215345  0.99843508     0.90000
C881        C  0.50130682  0.93198365  0.48872477     0.90000
C882        C  0.50814566  0.57667941  0.48019862     0.90200
O883        O  0.93914866  0.00057017  0.77072677    -0.72100
O884        O  0.56098306  0.50308687  0.78187832    -0.72200
O885        O  0.00454595  0.54799329  0.78994684    -0.72200
O886        O  0.49482117  0.94469817  0.77370704    -0.72300
O887        O  0.00606864  0.95057381  0.71637717    -0.72200
O888        O  0.50232887  0.56174250  0.72833272    -0.72200
O889        O  0.55638272  0.00678528  0.72516761    -0.72200
O890        O  0.95022498  0.50137671  0.72597071    -0.72200
Ni891      Ni  0.99177497  0.99815028  0.78276115     1.25400
Ni892      Ni  0.00657438  0.00502993  0.71883857     1.25400
C893        C  0.92843224  0.00516487  0.73769030     0.90000
C894        C  0.57043909  0.00105764  0.75680882     0.90000
C895        C  0.99939566  0.57165144  0.76349487     0.90000
C896        C  0.99925948  0.92964106  0.74464650     0.90200
O897        O  0.95956919  0.69715187  0.51182572    -0.72100
O898        O  0.97072313  0.80638298  0.00695047    -0.72200
O899        O  0.96478734  0.75199697  0.95520967    -0.72200
O900        O  0.96268203  0.75520044  0.55917451    -0.72300
O901        O  0.52085596  0.75456622  0.55388179    -0.72200
O902        O  0.53132308  0.75768972  0.95241123    -0.72200
O903        O  0.51657902  0.80850589  0.49994056    -0.72200
O904        O  0.53704932  0.70218256  0.00365387    -0.72200
Ni905      Ni  0.96132732  0.75158846  0.50714686     1.25400
Ni906      Ni  0.52105223  0.75385518  0.50132036     1.25400
C907        C  0.50874218  0.67975812  0.00352328     0.90000
C908        C  0.48410711  0.82543301  0.50228604     0.90000
C909        C  0.50138108  0.75189412  0.93416963     0.90000
C910        C  0.48985202  0.75415260  0.57292529     0.90200
O911        O  0.52146710  0.81132208  0.75178392    -0.72100
O912        O  0.53727124  0.70346717  0.74945589    -0.72200
O913        O  0.52645202  0.75864493  0.69882360    -0.72200
O914        O  0.53246869  0.75622468  0.80334098    -0.72300
O915        O  0.96357980  0.74520910  0.81043584    -0.72200
O916        O  0.96124819  0.75045255  0.70566671    -0.72200
O917        O  0.96910100  0.69360798  0.75610415    -0.72200
O918        O  0.95567864  0.80192376  0.76060434    -0.72200
Ni919      Ni  0.53165860  0.75770788  0.75077802     1.25400
Ni920      Ni  0.96011027  0.74753531  0.75826970     1.25400
C921        C  0.98499446  0.82310679  0.75950789     0.90000
C922        C  0.00281185  0.67961028  0.75297542     0.90000
C923        C  0.99241868  0.75470892  0.68734958     0.90000
C924        C  0.99549123  0.74813256  0.82613226     0.90200
O925        O  0.69038774  0.97483549  0.99252118    -0.72100
O926        O  0.80166651  0.96432821  0.48898990    -0.72200
O927        O  0.74889108  0.96858790  0.54440846    -0.72200
O928        O  0.74355139  0.97464231  0.93799020    -0.72300
O929        O  0.76240306  0.53389683  0.95949198    -0.72200
O930        O  0.75492717  0.53319577  0.56398350    -0.72200
O931        O  0.81109022  0.52611833  0.01519426    -0.72200
O932        O  0.70084299  0.53979922  0.51282000    -0.72200
Ni933      Ni  0.74422287  0.96557021  0.98971103     1.25400
Ni934      Ni  0.75744401  0.53517358  0.01173510     1.25400
C935        C  0.68042270  0.51008515  0.51088158     0.90000
C936        C  0.82531563  0.49243505  0.01638440     0.90000
C937        C  0.75048609  0.50142187  0.58088370     0.90000
C938        C  0.76036656  0.50270145  0.94215056     0.90200
O939        O  0.80778693  0.53883587  0.75491296    -0.72100
O940        O  0.69979744  0.52916735  0.76538352    -0.72200
O941        O  0.75767025  0.53502270  0.81283549    -0.72200
O942        O  0.74990988  0.53293348  0.70843501    -0.72300
O943        O  0.74699301  0.96929553  0.69372956    -0.72200
O944        O  0.74281140  0.97763854  0.79842611    -0.72200
O945        O  0.69099094  0.98057310  0.74504138    -0.72200
O946        O  0.79884978  0.96606118  0.74815679    -0.72200
Ni947      Ni  0.75357117  0.53625839  0.76045329     1.25400
Ni948      Ni  0.74463952  0.97114463  0.74642169     1.25400
C949        C  0.82053415  0.99493304  0.74599166     0.90000
C950        C  0.67708705  0.01420707  0.74149359     0.90000
C951        C  0.74628495  0.01034060  0.81278210     0.90000
C952        C  0.75130842  0.99941015  0.67402556     0.90200
C953        C  0.74581046  0.01308748  0.85201984    -0.11000
C954        C  0.74611613  0.01257975  0.88506164    -0.12600
C955        C  0.75189065  0.99703388  0.63476748    -0.11000
C956        C  0.75193932  0.99744831  0.60171900    -0.12600
C957        C  0.50374834  0.75192036  0.89494323    -0.11000
C958        C  0.99629844  0.74736619  0.86534380    -0.12600
C959        C  0.49130281  0.75476864  0.61209349    -0.11000
C960        C  0.99206447  0.75574921  0.64815873    -0.12600
C961        C  0.61190656  0.99830829  0.76042723    -0.14200
C962        C  0.63563911  0.01948998  0.73969207    -0.29300
H963        H  0.63289806  0.53742588  0.73422008     0.14900
H964        H  0.62444098  0.04146418  0.72158338     0.15400
C965        C  0.88751292  0.00881012  0.73038161    -0.14200
C966        C  0.86171872  0.98907326  0.75010528    -0.29300
H967        H  0.88486749  0.46511931  0.78049981     0.14900
H968        H  0.87109873  0.96760800  0.76969418     0.15400
C969        C  0.00175389  0.88806641  0.74114172    -0.14200
C970        C  0.97994878  0.86460685  0.76152164    -0.29300
H971        H  0.52038044  0.87943810  0.71450211     0.14900
H972        H  0.95751413  0.87603977  0.77927063     0.15400
C973        C  0.99459164  0.61246874  0.77115174    -0.14200
C974        C  0.00831222  0.63863432  0.74752952    -0.29300
H975        H  0.98073041  0.62114995  0.79662510     0.14900
H976        H  0.53787333  0.63047089  0.73027843     0.15400
C977        C  0.61545430  0.49696396  0.02190993    -0.14200
C978        C  0.64113430  0.51631022  0.00168969    -0.29300
H979        H  0.62102989  0.97454080  0.96112451     0.14900
H980        H  0.62477874  0.53497431  0.52789501     0.15400
C981        C  0.86673845  0.48732765  0.01891917    -0.14200
C982        C  0.89049368  0.50610981  0.99610732    -0.29300
H983        H  0.87725905  0.47204368  0.53519615     0.14900
H984        H  0.87171264  0.02531374  0.02838521     0.15400
C985        C  0.48170033  0.86715022  0.50451340    -0.14200
C986        C  0.50263613  0.89049587  0.48310373    -0.29300
H987        H  0.02407898  0.87121562  0.47323256     0.14900
H988        H  0.52029064  0.87734398  0.03911552     0.15400
C989        C  0.51016023  0.61852906  0.48127502    -0.14200
C990        C  0.49021544  0.63877786  0.50614510    -0.29300
H991        H  0.03324098  0.62346167  0.97843758     0.14900
H992        H  0.47107112  0.62440164  0.52535764     0.15400
loop_ 
_geom_bond_atom_site_label_1 
_geom_bond_atom_site_label_2 
_geom_bond_distance 
_geom_bond_site_symmetry_2 
_ccdc_geom_bond_type 
O1         Ni257   1.917   1_455  S
O1          C383   1.281   1_544  A
O2         Ni505   1.913       .  S
O2          C384   1.281   1_554  A
O3           Ni9   1.913       .  S
O3           C13   1.279       .  A
O4         Ni753   1.912       .  S
O4          C510   1.280   1_554  A
O5         Ni754   1.921   1_545  S
O5          C138   1.281       .  A
O6          Ni10   1.920       .  S
O6          C633   1.281       .  A
O7         Ni258   1.925       .  S
O7           C12   1.282       .  A
O8         Ni506   1.915       .  S
O8           C11   1.281       .  A
Ni9         O249   1.919       .  S
Ni9         O498   1.919   1_455  S
Ni9         O748   1.923       .  S
Ni9        Ni630   2.391   1_554  S
Ni10        O749   1.921       .  S
Ni10        O255   1.926       .  S
Ni10        O504   1.914       .  S
Ni10       Ni629   2.390       .  S
C11         O373   1.282       .  A
C11         C357   1.474       .  S
C12         O374   1.280   1_545  A
C12         C114   1.472       .  S
C13         O626   1.283   1_554  A
C13         C118   1.471       .  S
C14         O500   1.281   1_656  A
C14         O129   1.281       .  A
C14         C121   1.472       .  S
O15         Ni23   1.912       .  S
O15          C25   1.279       .  A
O16        Ni767   1.922   1_455  S
O16         C274   1.281       .  A
O17        Ni271   1.923   1_545  S
O17          C27   1.281       .  A
O18        Ni519   1.912   1_455  S
O18         C524   1.280   1_455  A
O19         Ni24   1.923       .  S
O19          C28   1.281       .  A
O20        Ni768   1.914   1_545  S
O20         C523   1.280   1_455  A
O21        Ni520   1.914   1_455  S
O21          C26   1.279       .  A
O22        Ni272   1.923       .  S
O22         C273   1.281       .  A
Ni23        O760   1.924       .  S
Ni23        O265   1.925       .  S
Ni23        O514   1.913       .  S
Ni23        Ni24   2.393       .  S
Ni24        O764   1.912       .  S
Ni24        O517   1.911       .  S
Ni24        O270   1.919       .  S
C25         O270   1.282       .  A
C25          C97   1.467       .  S
C26         O264   1.283       .  A
C26          C93   1.472       .  S
C27         O516   1.280       .  A
C27         C105   1.472       .  S
C28         O514   1.280       .  A
C28         C101   1.470       .  S
O29         Ni37   1.917       .  S
O29         C659   1.281       .  A
O30        Ni161   1.924       .  S
O30         C660   1.281       .  A
O31        Ni161   1.922       .  S
O31         C537   1.281       .  A
O32         Ni37   1.921   1_554  S
O32         C538   1.280       .  A
O33         Ni38   1.914   1_554  S
O33          C42   1.279   1_455  A
O34        Ni162   1.916       .  S
O34          C41   1.279       .  A
O35         Ni38   1.917       .  S
O35          C40   1.281   1_455  A
O36        Ni162   1.920       .  S
O36          C39   1.282   1_455  A
Ni37        O154   1.917       .  S
Ni37        O155   1.918       .  S
Ni37       Ni534   2.392   1_556  S
Ni38        O158   1.924       .  S
Ni38        O160   1.918       .  S
Ni38       Ni533   2.393   1_455  S
C39         O649   1.279       .  A
C39         C246   1.468       .  S
C40         O650   1.280       .  A
C40         C117   1.471       .  S
C41         O527   1.281   1_455  A
C41          C89   1.437       .  S
C42         O528   1.281       .  A
C42          C91   1.437       .  S
O43         Ni51   1.919       .  S
O43         C549   1.281   1_455  A
O44         Ni51   1.919       .  S
O44         C550   1.280       .  A
O45         Ni51   1.914       .  S
O45         C551   1.279   1_455  A
O46         Ni51   1.924       .  S
O46         C552   1.281       .  A
O47         Ni52   1.908       .  S
O47          C56   1.277       .  A
O48         Ni52   1.921       .  S
O48          C55   1.280       .  A
O49         Ni52   1.919       .  S
O49          C54   1.281       .  A
O50         Ni52   1.918       .  S
O50          C53   1.281       .  A
Ni51       Ni548   2.393   1_455  S
Ni52       Ni547   2.394       .  S
C53         O539   1.281       .  A
C53         C102   1.470       .  S
C54         O540   1.280       .  A
C54         C106   1.469       .  S
C55         O541   1.279       .  A
C55          C92   1.435       .  S
C56         O542   1.281       .  A
C56          C90   1.432       .  S
O57         Ni65   1.920       .  S
O57         C439   1.281       .  A
O58        Ni189   1.917       .  S
O58         C440   1.280       .  A
O59        Ni189   1.913   1_554  S
O59         C317   1.278       .  A
O60         Ni65   1.922       .  S
O60         C318   1.281       .  A
O61         Ni66   1.917       .  S
O61          C70   1.279       .  A
O62        Ni190   1.912       .  S
O62          C69   1.278   1_545  A
O63         Ni66   1.921       .  S
O63          C68   1.282   1_545  A
O64        Ni190   1.921       .  S
O64          C67   1.281       .  A
Ni65        O182   1.921       .  S
Ni65        O183   1.912       .  S
Ni65       Ni314   2.393       .  S
Ni66        O186   1.917       .  S
Ni66        O188   1.921       .  S
Ni66       Ni313   2.391   1_545  S
C67         O429   1.281   1_545  A
C67         C234   1.471       .  S
C68         O430   1.280       .  A
C68         C113   1.470       .  S
C69         O307   1.281       .  A
C69         C336   1.436       .  S
C70         O308   1.281   1_545  A
C70         C334   1.438       .  S
O71         Ni79   1.915       .  S
O71         C329   1.281   1_545  A
O72         Ni79   1.917       .  S
O72         C330   1.280       .  A
O73         Ni79   1.928       .  S
O73         C331   1.282       .  A
O74         Ni79   1.916       .  S
O74         C332   1.280   1_545  A
O75         Ni80   1.920       .  S
O75          C84   1.280       .  A
O76         Ni80   1.911       .  S
O76          C83   1.278       .  A
O77         Ni80   1.917       .  S
O77          C82   1.280       .  A
O78         Ni80   1.914       .  S
O78          C81   1.281       .  A
Ni79       Ni328   2.393   1_545  S
Ni80       Ni327   2.393       .  S
C81         O319   1.280       .  A
C81          C98   1.469       .  S
C82         O320   1.282       .  A
C82          C94   1.473       .  S
C83         O321   1.281       .  A
C83          C85   1.433       .  S
C84         O322   1.278       .  A
C84          C87   1.434       .  S
C85          C86   1.204       .  T
C86         C318   1.433       .  S
C87          C88   1.205       .  T
C88         C317   1.434       .  S
C89         C586   1.207       .  T
C90         C585   1.204       .  T
C91         C588   1.207       .  T
C92         C587   1.206       .  T
C93          C94   1.340       .  D
C93         H343   1.087       .  S
C94          H96   1.087       .  S
H95         C341   1.087       .  S
C97          C98   1.340       .  D
C97         H347   1.087       .  S
C98         H100   1.087       .  S
H99         C345   1.087       .  S
C101        C102   1.341       .  D
C101        H599   1.086       .  S
C102        H104   1.087       .  S
H103        C597   1.086       .  S
C105        C106   1.341       .  D
C105        H107   1.087       .  S
C106        H604   1.087       .  S
H108        C602   1.087       .  S
C109        C259   1.470       .  S
C109        C110   1.342   1_565  D
C109        H359   1.087       .  S
C110        C191   1.472       .  S
C110        H236   1.087       .  S
H111        C357   1.087       .  S
H112        C234   1.087       .  S
C113        C114   1.341   1_565  D
C113        H239   1.087       .  S
C114        H364   1.087       .  S
H115        C237   1.087   1_556  S
H116        C362   1.087       .  S
C117        C118   1.340   1_656  D
C117        H615   1.086       .  S
C118        H244   1.087       .  S
H119        C613   1.087   1_554  S
H120        C242   1.087       .  S
C121        C122   1.341   1_655  D
C121        H743   1.087       .  S
C122        C163   1.471       .  S
C122        H124   1.087   1_556  S
H123        C741   1.086       .  S
O125       Ni381   1.921   1_565  S
O125        C259   1.282       .  A
O126       Ni629   1.916       .  S
O126        C260   1.281       .  A
O127       Ni133   1.913       .  S
O127        C137   1.279       .  A
O128       Ni877   1.924   1_545  S
O128        C634   1.281       .  A
O129       Ni878   1.921   1_545  S
O130       Ni134   1.924       .  S
O130        C509   1.281       .  A
O131       Ni382   1.910       .  S
O131        C136   1.280   1_566  A
O132       Ni630   1.918       .  S
O132        C135   1.281   1_556  A
Ni133       O373   1.926   1_655  S
Ni133       O622   1.915       .  S
Ni133       O872   1.924   1_655  S
Ni133      Ni506   2.392   1_655  S
Ni134       O873   1.915       .  S
Ni134       O379   1.923       .  S
Ni134       O628   1.912       .  S
Ni134      Ni505   2.391   1_556  S
C135        O249   1.281       .  A
C135        C481   1.470       .  S
C136        O250   1.281       .  A
C136        C238   1.470       .  S
C137        O502   1.282   1_655  A
C137        C242   1.469       .  S
C138        O624   1.281       .  A
C138        C245   1.470       .  S
O139       Ni147   1.912       .  S
O139        C149   1.279       .  A
O140       Ni891   1.922   1_455  S
O140        C398   1.281       .  A
O141       Ni395   1.923   1_545  S
O141        C151   1.281       .  A
O142       Ni643   1.913       .  S
O142        C648   1.281       .  A
O143       Ni148   1.925       .  S
O143        C152   1.282       .  A
O144       Ni892   1.911       .  S
O144        C647   1.279   1_455  A
O145       Ni644   1.914       .  S
O145        C150   1.279       .  A
O146       Ni396   1.923       .  S
O146        C397   1.281       .  A
Ni147       O884   1.923       .  S
Ni147       O389   1.923       .  S
Ni147       O638   1.912       .  S
Ni147      Ni148   2.392       .  S
Ni148       O888   1.913       .  S
Ni148       O641   1.912       .  S
Ni148       O394   1.924       .  S
C149        O394   1.282       .  A
C149        C221   1.469       .  S
C150        O388   1.282       .  A
C150        C217   1.470       .  S
C151        O640   1.280       .  A
C151        C229   1.470       .  S
C152        O638   1.280       .  A
C152        C225   1.472       .  S
O153       Ni161   1.922       .  S
O153        C535   1.282       .  A
O154        C536   1.280       .  A
O155        C661   1.280       .  A
O156       Ni161   1.913       .  S
O156        C662   1.278       .  A
O157       Ni162   1.926       .  S
O157        C166   1.282       .  A
O158        C165   1.281       .  A
O159       Ni162   1.921       .  S
O159        C164   1.281       .  A
O160        C163   1.280       .  A
Ni161      Ni658   2.393       .  S
Ni162      Ni657   2.393   1_455  S
C163        O525   1.282   1_455  A
C164        O526   1.281   1_455  A
C164        C241   1.472       .  S
C165        O651   1.278   1_455  A
C165        C213   1.435       .  S
C166        O652   1.278   1_455  A
C166        C215   1.438       .  S
O167       Ni175   1.926       .  S
O167        C673   1.283       .  A
O168       Ni175   1.925       .  S
O168        C674   1.282       .  A
O169       Ni175   1.912       .  S
O169        C675   1.278       .  A
O170       Ni175   1.921       .  S
O170        C676   1.280       .  A
O171       Ni176   1.909       .  S
O171        C180   1.278       .  A
O172       Ni176   1.920       .  S
O172        C179   1.280       .  A
O173       Ni176   1.916       .  S
O173        C178   1.281       .  A
O174       Ni176   1.916       .  S
O174        C177   1.280       .  A
Ni175      Ni672   2.393   1_455  S
Ni176      Ni671   2.393       .  S
C177        O663   1.282       .  A
C177        C226   1.471       .  S
C178        O664   1.281       .  A
C178        C230   1.470       .  S
C179        O665   1.279       .  A
C179        C216   1.433       .  S
C180        O666   1.281       .  A
C180        C214   1.433       .  S
O181       Ni189   1.916       .  S
O181        C315   1.281       .  A
O182        C316   1.281       .  A
O183        C441   1.278       .  A
O184       Ni189   1.923       .  S
O184        C442   1.281       .  A
O185       Ni190   1.923   1_556  S
O185        C194   1.280       .  A
O186        C193   1.280   1_545  A
O187       Ni190   1.920       .  S
O187        C192   1.282   1_545  A
O188        C191   1.281       .  A
Ni189      Ni438   2.393       .  S
Ni190      Ni437   2.393   1_545  S
C191        O305   1.281   1_545  A
C192        O306   1.279       .  A
C192        C237   1.469       .  S
C193        O431   1.280       .  A
C193        C460   1.437       .  S
C194        O432   1.280   1_545  A
C194        C458   1.437       .  S
O195       Ni203   1.913       .  S
O195        C453   1.280   1_545  A
O196       Ni203   1.915       .  S
O196        C454   1.279       .  A
O197       Ni203   1.926       .  S
O197        C455   1.281       .  A
O198       Ni203   1.915       .  S
O198        C456   1.279   1_545  A
O199       Ni204   1.920       .  S
O199        C208   1.280       .  A
O200       Ni204   1.911       .  S
O200        C207   1.278       .  A
O201       Ni204   1.917       .  S
O201        C206   1.280       .  A
O202       Ni204   1.916       .  S
O202        C205   1.281       .  A
Ni203      Ni452   2.393   1_545  S
Ni204      Ni451   2.393       .  S
C205        O443   1.281       .  A
C205        C222   1.472       .  S
C206        O444   1.282       .  A
C206        C218   1.472       .  S
C207        O445   1.281       .  A
C207        C209   1.434       .  S
C208        O446   1.279       .  A
C208        C211   1.434       .  S
C209        C210   1.205       .  T
C210        C442   1.434       .  S
C211        C212   1.205       .  T
C212        C441   1.434       .  S
C213        C710   1.206       .  T
C214        C709   1.205       .  T
C215        C712   1.208       .  T
C216        C711   1.205       .  T
C217        C218   1.340       .  D
C217        H467   1.087       .  S
C218        H220   1.087       .  S
H219        C465   1.087       .  S
C221        C222   1.340       .  D
C221        H471   1.087       .  S
C222        H224   1.087       .  S
H223        C469   1.087       .  S
C225        C226   1.342       .  D
C225        H723   1.086       .  S
C226        H228   1.087       .  S
H227        C721   1.086       .  S
C229        C230   1.342       .  D
C229        H231   1.087       .  S
C230        H728   1.087       .  S
H232        C726   1.087       .  S
C233        C383   1.471       .  S
C233        C234   1.342   1_566  D
C233        H483   1.087       .  S
H235        C481   1.087       .  S
C237        C238   1.341   1_565  D
C238        H488   1.087       .  S
H240        C486   1.087       .  S
C241        C242   1.341   1_455  D
C241        H739   1.087       .  S
H243        C737   1.086       .  S
C245        C246   1.340   1_455  D
C245        H619   1.087       .  S
C246        H248   1.087       .  S
H247        C617   1.087       .  S
O250       Ni753   1.922       .  S
O251       Ni257   1.927   1_565  S
O251        C261   1.282       .  A
O252       Ni505   1.922       .  S
O252        C758   1.281       .  A
O253       Ni506   1.913       .  S
O253        C386   1.279       .  A
O254       Ni258   1.929   1_565  S
O254        C881   1.283       .  A
O255        C260   1.282       .  A
O256       Ni754   1.915       .  S
O256        C259   1.279       .  A
Ni257       O746   1.916       .  S
Ni257       O500   1.916   1_655  S
Ni257      Ni878   2.391   1_544  S
Ni258       O501   1.918       .  S
Ni258       O752   1.914       .  S
Ni258      Ni877   2.391   1_545  S
C260        C362   1.475       .  S
C261        O874   1.280   1_554  A
C261        C366   1.473       .  S
C262        O748   1.282   1_556  A
C262        O377   1.279       .  A
C262        C369   1.467       .  S
O263       Ni271   1.912       .  S
O263        C273   1.280   1_565  A
O264       Ni519   1.924   1_455  S
O265        C275   1.281       .  A
O266       Ni767   1.913       .  S
O266        C772   1.280       .  A
O267       Ni272   1.923   1_565  S
O267        C276   1.281       .  A
O268       Ni520   1.911       .  S
O268        C771   1.280       .  A
O269       Ni768   1.915       .  S
O269        C274   1.281       .  A
Ni271       O512   1.924       .  S
Ni271       O762   1.914       .  S
Ni271      Ni272   2.392   1_565  S
Ni272       O516   1.911       .  S
Ni272       O765   1.914       .  S
C273        C345   1.471       .  S
C274        C341   1.472       .  S
C275        O764   1.280       .  A
C275        C353   1.473       .  S
C276        O762   1.280       .  A
C276        C349   1.471       .  S
O277       Ni285   1.922       .  S
O277        C907   1.282       .  A
O278       Ni409   1.915       .  S
O278        C908   1.280       .  A
O279       Ni409   1.922       .  S
O279        C785   1.281       .  A
O280       Ni285   1.913       .  S
O280        C786   1.278       .  A
O281       Ni286   1.921       .  S
O281        C290   1.281   1_455  A
O282       Ni410   1.913       .  S
O282        C289   1.279   1_455  A
O283       Ni286   1.913       .  S
O283        C288   1.279       .  A
O284       Ni410   1.914       .  S
O284        C287   1.281   1_455  A
Ni285       O402   1.922       .  S
Ni285       O403   1.915   1_554  S
Ni285      Ni782   2.392       .  S
Ni286       O406   1.915   1_554  S
Ni286       O408   1.911       .  S
Ni286      Ni781   2.394   1_455  S
C287        O897   1.281       .  A
C287        C494   1.473       .  S
C288        O898   1.282   1_455  A
C288        C365   1.468       .  S
C289        O775   1.280       .  A
C289        C337   1.432       .  S
C290        O776   1.277       .  A
C290        C339   1.430       .  S
O291       Ni299   1.918       .  S
O291        C797   1.281   1_455  A
O292       Ni299   1.917       .  S
O292        C798   1.280       .  A
O293       Ni299   1.907       .  S
O293        C799   1.277   1_455  A
O294       Ni299   1.919       .  S
O294        C800   1.280   1_455  A
O295       Ni300   1.911       .  S
O295        C304   1.278       .  A
O296       Ni300   1.921       .  S
O296        C303   1.280       .  A
O297       Ni300   1.924       .  S
O297        C302   1.282       .  A
O298       Ni300   1.923       .  S
O298        C301   1.281       .  A
Ni299      Ni796   2.394   1_455  S
Ni300      Ni795   2.394       .  S
C301        O787   1.280       .  A
C301        C350   1.471       .  S
C302        O788   1.279       .  A
C302        C354   1.469       .  S
C303        O789   1.278       .  A
C303        C340   1.432       .  S
C304        O790   1.281       .  A
C304        C338   1.432       .  S
O305       Ni313   1.915       .  S
O306       Ni437   1.914       .  S
O307       Ni437   1.926       .  S
O308       Ni313   1.922       .  S
O309       Ni314   1.910       .  S
O309        C318   1.278       .  A
O310       Ni438   1.921   1_554  S
O310        C317   1.280       .  A
O311       Ni314   1.922       .  S
O311        C316   1.282       .  A
O312       Ni438   1.921       .  S
O312        C315   1.281       .  A
Ni313       O430   1.916       .  S
Ni313       O431   1.922       .  S
Ni314       O434   1.922       .  S
Ni314       O436   1.920       .  S
C315        C482   1.471       .  S
C316        C361   1.473       .  S
O319       Ni327   1.918       .  S
O320       Ni327   1.921       .  S
O321       Ni327   1.921       .  S
O322       Ni327   1.913       .  S
O323       Ni328   1.921       .  S
O323        C332   1.280       .  A
O324       Ni328   1.912       .  S
O324        C331   1.278   1_565  A
O325       Ni328   1.921       .  S
O325        C330   1.282   1_565  A
O326       Ni328   1.919       .  S
O326        C329   1.280       .  A
C329        C346   1.469       .  S
C330        C342   1.472       .  S
C331        C333   1.437       .  S
C332        C335   1.436       .  S
C333        C334   1.207       .  T
C335        C336   1.207       .  T
C337        C834   1.204       .  T
C338        C833   1.204       .  T
C339        C836   1.203       .  T
C340        C835   1.204       .  T
C341        C342   1.341   1_565  D
C342        H344   1.087       .  S
C345        C346   1.342   1_545  D
C346        H348   1.087       .  S
C349        C350   1.342       .  D
C349        H847   1.087       .  S
C350        H352   1.087       .  S
H351        C845   1.087       .  S
C353        C354   1.341       .  D
C353        H355   1.086       .  S
C354        H852   1.087       .  S
H356        C850   1.087       .  S
C357        C358   1.342       .  D
C358        C439   1.473       .  S
C358        H484   1.087       .  S
H360        C482   1.087       .  S
C361        C362   1.343       .  D
C361        H487   1.087       .  S
H363        C485   1.087   1_554  S
C365        C366   1.341   1_455  D
C365        H863   1.087   1_554  S
C366        H492   1.086       .  S
H367        C861   1.087   1_556  S
H368        C490   1.087       .  S
C369        C370   1.341   1_456  D
C369        H991   1.087       .  S
C370        C411   1.472       .  S
C370        H372   1.087       .  S
H371        C989   1.087       .  S
O374       Ni877   1.911       .  S
O375       Ni381   1.924   1_665  S
O375        C385   1.282       .  A
O376       Ni629   1.922       .  S
O376        C882   1.282       .  A
O377       Ni630   1.913       .  S
O378       Ni382   1.914       .  S
O378        C757   1.281   1_556  A
O379        C384   1.281       .  A
O380       Ni878   1.918   1_455  S
O380        C383   1.280       .  A
Ni381       O870   1.910   1_455  S
Ni381       O624   1.913       .  S
Ni381      Ni754   2.393   1_545  S
Ni382       O625   1.924   1_565  S
Ni382       O876   1.921       .  S
Ni382      Ni753   2.392   1_566  S
C384        C486   1.472       .  S
C385        O750   1.280       .  A
C385        C490   1.472       .  S
C386        O872   1.282       .  A
C386        C493   1.469       .  S
O387       Ni395   1.909       .  S
O387        C397   1.280   1_565  A
O388       Ni643   1.923       .  S
O389        C399   1.281       .  A
O390       Ni891   1.917       .  S
O390        C896   1.281       .  A
O391       Ni396   1.921   1_565  S
O391        C400   1.281       .  A
O392       Ni644   1.911   1_655  S
O392        C895   1.281       .  A
O393       Ni892   1.913       .  S
O393        C398   1.281   1_545  A
Ni395       O636   1.920       .  S
Ni395       O886   1.913       .  S
Ni395      Ni396   2.392   1_565  S
Ni396       O640   1.911       .  S
Ni396       O889   1.914       .  S
C397        C469   1.470       .  S
C398        C465   1.471       .  S
C399        O888   1.280       .  A
C399        C477   1.471       .  S
C400        O886   1.281       .  A
C400        C473   1.471       .  S
O401       Ni409   1.915       .  S
O401        C783   1.279       .  A
O402        C784   1.281       .  A
O403        C909   1.279       .  A
O404       Ni409   1.913       .  S
O404        C910   1.278       .  A
O405       Ni410   1.922       .  S
O405        C414   1.281   1_455  A
O406        C413   1.279   1_455  A
O407       Ni410   1.913       .  S
O407        C412   1.279       .  A
O408        C411   1.280   1_455  A
Ni409      Ni906   2.393       .  S
Ni410      Ni905   2.394   1_455  S
C411        O773   1.282       .  A
C412        O774   1.282   1_455  A
C412        C489   1.467       .  S
C413        O899   1.280       .  A
C413        C461   1.434       .  S
C414        O900   1.277       .  A
C414        C463   1.432       .  S
O415       Ni423   1.915       .  S
O415        C921   1.281   1_455  A
O416       Ni423   1.916       .  S
O416        C922   1.280       .  A
O417       Ni423   1.909       .  S
O417        C923   1.277   1_455  A
O418       Ni423   1.920       .  S
O418        C924   1.280   1_455  A
O419       Ni424   1.913       .  S
O419        C428   1.279       .  A
O420       Ni424   1.922       .  S
O420        C427   1.281       .  A
O421       Ni424   1.919       .  S
O421        C426   1.281       .  A
O422       Ni424   1.919       .  S
O422        C425   1.280       .  A
Ni423      Ni920   2.394   1_455  S
Ni424      Ni919   2.393       .  S
C425        O911   1.281       .  A
C425        C474   1.470       .  S
C426        O912   1.280       .  A
C426        C478   1.471       .  S
C427        O913   1.278       .  A
C427        C464   1.434       .  S
C428        O914   1.280       .  A
C428        C462   1.434       .  S
O429       Ni437   1.914       .  S
O432       Ni437   1.916   1_556  S
O433       Ni438   1.910       .  S
O433        C442   1.278       .  A
O434        C441   1.281       .  A
O435       Ni438   1.919       .  S
O435        C440   1.282       .  A
O436        C439   1.281       .  A
C440        C485   1.470       .  S
O443       Ni451   1.920       .  S
O444       Ni451   1.920       .  S
O445       Ni451   1.922       .  S
O446       Ni451   1.914       .  S
O447       Ni452   1.923       .  S
O447        C456   1.281       .  A
O448       Ni452   1.913       .  S
O448        C455   1.278   1_565  A
O449       Ni452   1.919       .  S
O449        C454   1.282   1_565  A
O450       Ni452   1.919       .  S
O450        C453   1.280       .  A
C453        C470   1.468       .  S
C454        C466   1.469       .  S
C455        C457   1.437       .  S
C456        C459   1.437       .  S
C457        C458   1.207       .  T
C459        C460   1.207       .  T
C461        C958   1.205       .  T
C462        C957   1.205       .  T
C463        C960   1.204       .  T
C464        C959   1.205       .  T
C465        C466   1.340   1_565  D
C466        H468   1.087       .  S
C469        C470   1.342   1_545  D
C470        H472   1.087       .  S
C473        C474   1.341       .  D
C473        H971   1.087       .  S
C474        H476   1.087       .  S
H475        C969   1.087       .  S
C477        C478   1.341       .  D
C477        H479   1.086       .  S
C478        H976   1.087       .  S
H480        C974   1.087       .  S
C481        C482   1.341   1_554  D
C485        C486   1.341       .  D
C489        C490   1.340   1_455  D
C489        H987   1.087       .  S
H491        C985   1.087       .  S
C493        C494   1.341   1_455  D
C493        H867   1.087       .  S
C494        H496   1.087       .  S
H495        C865   1.087       .  S
O497       Ni753   1.911       .  S
O497        C879   1.280   1_544  A
O498        C880   1.281   1_554  A
O499       Ni505   1.912       .  S
O499        C509   1.280   1_554  A
O501        C634   1.281       .  A
O502       Ni506   1.924       .  S
O503       Ni754   1.924   1_645  S
O503        C508   1.282       .  A
O504        C507   1.279       .  A
Ni505       O745   1.924       .  S
Ni506       O751   1.927   1_455  S
C507        O869   1.282       .  A
C507        C853   1.471       .  S
C508        O870   1.278       .  A
C508        C610   1.467       .  S
C509        C614   1.471       .  S
C510        O625   1.281       .  A
C510        C617   1.472       .  S
O511       Ni519   1.913       .  S
O511        C521   1.279       .  A
O512        C770   1.282       .  A
O513       Ni767   1.924   1_545  S
O513        C523   1.282       .  A
O515       Ni520   1.924       .  S
O515        C524   1.281       .  A
O517        C522   1.279       .  A
O518       Ni768   1.925   1_655  S
O518        C769   1.282       .  A
Ni519       O761   1.922       .  S
Ni519      Ni520   2.393       .  S
Ni520       O766   1.923       .  S
C521        O766   1.283       .  A
C521        C593   1.470       .  S
C522        O760   1.283       .  A
C522        C589   1.470       .  S
C523        C601   1.473       .  S
C524        C597   1.470   1_655  S
O525       Ni533   1.920       .  S
O526       Ni657   1.915       .  S
O527       Ni657   1.923       .  S
O528       Ni533   1.925   1_554  S
O529       Ni534   1.916       .  S
O529        C538   1.279       .  A
O530       Ni658   1.909       .  S
O530        C537   1.277       .  A
O531       Ni534   1.920   1_556  S
O531        C536   1.282       .  A
O532       Ni658   1.920       .  S
O532        C535   1.281       .  A
Ni533       O650   1.921       .  S
Ni533       O651   1.912       .  S
Ni534       O654   1.915   1_554  S
Ni534       O656   1.920       .  S
C535        C742   1.474       .  S
C536        C613   1.470       .  S
C537        C585   1.432       .  S
C538        C587   1.435       .  S
O539       Ni547   1.917       .  S
O540       Ni547   1.917       .  S
O541       Ni547   1.914       .  S
O542       Ni547   1.923       .  S
O543       Ni548   1.914       .  S
O543        C552   1.279   1_655  A
O544       Ni548   1.926       .  S
O544        C551   1.281       .  A
O545       Ni548   1.919       .  S
O545        C550   1.282   1_655  A
O546       Ni548   1.919       .  S
O546        C549   1.281       .  A
C549        C598   1.471       .  S
C550        C602   1.472       .  S
C551        C588   1.438       .  S
C552        C586   1.437       .  S
O553       Ni561   1.918       .  S
O553        C935   1.281       .  A
O554       Ni685   1.922       .  S
O554        C936   1.281       .  A
O555       Ni685   1.911       .  S
O555        C813   1.278       .  A
O556       Ni561   1.917       .  S
O556        C814   1.280       .  A
O557       Ni562   1.920       .  S
O557        C566   1.280       .  A
O558       Ni686   1.917   1_554  S
O558        C565   1.280   1_545  A
O559       Ni562   1.914       .  S
O559        C564   1.281   1_545  A
O560       Ni686   1.913       .  S
O560        C563   1.279       .  A
Ni561       O678   1.920       .  S
Ni561       O679   1.917       .  S
Ni561      Ni810   2.392       .  S
Ni562       O682   1.923       .  S
Ni562       O684   1.915       .  S
Ni562      Ni809   2.392   1_545  S
C563        O925   1.282   1_545  A
C563        C730   1.468   1_556  S
C564        O926   1.281       .  A
C564        C609   1.473       .  S
C565        O803   1.281       .  A
C565        C832   1.438       .  S
C566        O804   1.279   1_545  A
C566        C830   1.435       .  S
O567       Ni575   1.920       .  S
O567        C825   1.282   1_545  A
O568       Ni575   1.921       .  S
O568        C826   1.281       .  A
O569       Ni575   1.922       .  S
O569        C827   1.280       .  A
O570       Ni575   1.912       .  S
O570        C828   1.278   1_545  A
O571       Ni576   1.923       .  S
O571        C580   1.281       .  A
O572       Ni576   1.914       .  S
O572        C579   1.279       .  A
O573       Ni576   1.917       .  S
O573        C578   1.280       .  A
O574       Ni576   1.916       .  S
O574        C577   1.281       .  A
Ni575      Ni824   2.393   1_545  S
Ni576      Ni823   2.393       .  S
C577        O815   1.281       .  A
C577        C594   1.472       .  S
C578        O816   1.282       .  A
C578        C590   1.472       .  S
C579        O817   1.280       .  A
C579        C581   1.435       .  S
C580        O818   1.278       .  A
C580        C583   1.434       .  S
C581        C582   1.206       .  T
C582        C814   1.435       .  S
C583        C584   1.205       .  T
C584        C813   1.434       .  S
C589        C590   1.340       .  D
C589        H839   1.087       .  S
C590        H592   1.087       .  S
H591        C837   1.087       .  S
C593        C594   1.341       .  D
C593        H843   1.087       .  S
C594        H596   1.087       .  S
H595        C841   1.087   1_545  S
C597        C598   1.341   1_455  D
C598        H600   1.087       .  S
C601        C602   1.342   1_655  D
C601        H603   1.087       .  S
C605        C755   1.470   1_565  S
C605        C606   1.339   1_565  D
C605        H855   1.087       .  S
C606        C687   1.470       .  S
C606        H732   1.087       .  S
H607        C853   1.087       .  S
H608        C730   1.087       .  S
C609        C610   1.341   1_565  D
C609        H735   1.087       .  S
C610        H860   1.087       .  S
H611        C733   1.087       .  S
H612        C858   1.087       .  S
C613        C614   1.341       .  D
C614        H740   1.086       .  S
H616        C738   1.087       .  S
C617        C618   1.342   1_556  D
C618        C659   1.471   1_554  S
C618        H620   1.087       .  S
O621       Ni877   1.920       .  S
O621        C755   1.280   1_565  A
O622        C756   1.281       .  A
O623       Ni629   1.922       .  S
O623        C633   1.282       .  A
O626       Ni630   1.924       .  S
O627       Ni878   1.917       .  S
O627        C632   1.281   1_566  A
O628        C631   1.280   1_556  A
Ni629       O869   1.925       .  S
Ni630       O875   1.919   1_455  S
C631        O745   1.282       .  A
C631        C977   1.473       .  S
C632        O746   1.280       .  A
C632        C734   1.469       .  S
C633        C738   1.475       .  S
C634        C741   1.475       .  S
O635       Ni643   1.913   1_655  S
O635        C645   1.279       .  A
O636        C894   1.281   1_565  A
O637       Ni891   1.927   1_545  S
O637        C647   1.283       .  A
O639       Ni644   1.925       .  S
O639        C648   1.281       .  A
O641        C646   1.279       .  A
O642       Ni892   1.925   1_655  S
O642        C893   1.282       .  A
Ni643       O885   1.925       .  S
Ni643      Ni644   2.392       .  S
Ni644       O890   1.923   1_455  S
C645        O890   1.283       .  A
C645        C717   1.470       .  S
C646        O884   1.282       .  A
C646        C713   1.469       .  S
C647        C725   1.473       .  S
C648        C721   1.472       .  S
O649       Ni657   1.914       .  S
O652       Ni657   1.914       .  S
O653       Ni658   1.920       .  S
O653        C662   1.280       .  A
O654        C661   1.279       .  A
O655       Ni658   1.921       .  S
O655        C660   1.282       .  A
O656        C659   1.281   1_554  A
C660        C737   1.474       .  S
C661        C709   1.434       .  S
C662        C711   1.433       .  S
O663       Ni671   1.921       .  S
O664       Ni671   1.920       .  S
O665       Ni671   1.913       .  S
O666       Ni671   1.924       .  S
O667       Ni672   1.915       .  S
O667        C676   1.280   1_655  A
O668       Ni672   1.928       .  S
O668        C675   1.282   1_655  A
O669       Ni672   1.912       .  S
O669        C674   1.280   1_655  A
O670       Ni672   1.912       .  S
O670        C673   1.279   1_655  A
C673        C722   1.470       .  S
C674        C726   1.472       .  S
C675        C712   1.438       .  S
C676        C710   1.435       .  S
O677       Ni685   1.921       .  S
O677        C811   1.282       .  A
O678        C812   1.280       .  A
O679        C937   1.279       .  A
O680       Ni685   1.922   1_556  S
O680        C938   1.281       .  A
O681       Ni686   1.927       .  S
O681        C690   1.282       .  A
O682        C689   1.281   1_545  A
O683       Ni686   1.913       .  S
O683        C688   1.281   1_545  A
O684        C687   1.279       .  A
Ni685      Ni934   2.393       .  S
Ni686      Ni933   2.393   1_545  S
C687        O801   1.282   1_545  A
C688        O802   1.281       .  A
C688        C733   1.470       .  S
C689        O927   1.279       .  A
C689        C956   1.438       .  S
C690        O928   1.279   1_545  A
C690        C954   1.438       .  S
O691       Ni699   1.923       .  S
O691        C949   1.282   1_545  A
O692       Ni699   1.922       .  S
O692        C950   1.281       .  A
O693       Ni699   1.924       .  S
O693        C951   1.281       .  A
O694       Ni699   1.913       .  S
O694        C952   1.278   1_545  A
O695       Ni700   1.921       .  S
O695        C704   1.280       .  A
O696       Ni700   1.913       .  S
O696        C703   1.278       .  A
O697       Ni700   1.919       .  S
O697        C702   1.280       .  A
O698       Ni700   1.919       .  S
O698        C701   1.282       .  A
Ni699      Ni948   2.392   1_545  S
Ni700      Ni947   2.393       .  S
C701        O939   1.280       .  A
C701        C718   1.472       .  S
C702        O940   1.281       .  A
C702        C714   1.472       .  S
C703        O941   1.281       .  A
C703        C705   1.435       .  S
C704        O942   1.279       .  A
C704        C707   1.434       .  S
C705        C706   1.206       .  T
C706        C938   1.435       .  S
C707        C708   1.205       .  T
C708        C937   1.434       .  S
C713        C714   1.341       .  D
C713        H963   1.087       .  S
C714        H716   1.087       .  S
H715        C961   1.087       .  S
C717        C718   1.340       .  D
C717        H967   1.087       .  S
C718        H720   1.087       .  S
H719        C965   1.086       .  S
C721        C722   1.340       .  D
C722        H724   1.087   1_455  S
C725        C726   1.345   1_655  D
C725        H727   1.087       .  S
C729        C879   1.470       .  S
C729        C730   1.340   1_566  D
C729        H979   1.087       .  S
H731        C977   1.087       .  S
C733        C734   1.341   1_566  D
C734        H984   1.087       .  S
H736        C982   1.087       .  S
C737        C738   1.342       .  D
C741        C742   1.342       .  D
C742        H744   1.087       .  S
O747       Ni753   1.922   1_565  S
O747        C757   1.281       .  A
O749        C882   1.281       .  A
O750       Ni754   1.910   1_655  S
O751        C756   1.282       .  A
O752        C755   1.281       .  A
C756        C858   1.476       .  S
C757        C862   1.471       .  S
C758        O873   1.281   1_554  A
C758        C865   1.473       .  S
O759       Ni767   1.911       .  S
O759        C769   1.280       .  A
O761        C771   1.281       .  A
O763       Ni768   1.923       .  S
O763        C772   1.281   1_455  A
O765        C770   1.281   1_545  A
Ni767      Ni768   2.391   1_655  S
C769        C841   1.472       .  S
C770        C837   1.474       .  S
C771        C849   1.467       .  S
C772        C845   1.472   1_655  S
O773       Ni781   1.923       .  S
O774       Ni905   1.922       .  S
O775       Ni905   1.919       .  S
O776       Ni781   1.907       .  S
O777       Ni782   1.917       .  S
O777        C786   1.280       .  A
O778       Ni906   1.909       .  S
O778        C785   1.277       .  A
O779       Ni782   1.915       .  S
O779        C784   1.281       .  A
O780       Ni906   1.927       .  S
O780        C783   1.283       .  A
Ni781       O898   1.924       .  S
Ni781       O899   1.919   1_554  S
Ni782       O902   1.919   1_554  S
Ni782       O904   1.916       .  S
C783        C990   1.473       .  S
C784        C861   1.471       .  S
C785        C833   1.432       .  S
C786        C835   1.432       .  S
O787       Ni795   1.914       .  S
O788       Ni795   1.914       .  S
O789       Ni795   1.910       .  S
O790       Ni795   1.920       .  S
O791       Ni796   1.912       .  S
O791        C800   1.278       .  A
O792       Ni796   1.921       .  S
O792        C799   1.281       .  A
O793       Ni796   1.917       .  S
O793        C798   1.281   1_655  A
O794       Ni796   1.918       .  S
O794        C797   1.280       .  A
C797        C846   1.470       .  S
C798        C850   1.468       .  S
C799        C836   1.430       .  S
C800        C834   1.432       .  S
O801       Ni809   1.920       .  S
O802       Ni933   1.920       .  S
O803       Ni933   1.924   1_554  S
O804       Ni809   1.916       .  S
O805       Ni810   1.918       .  S
O805        C814   1.280       .  A
O806       Ni934   1.924       .  S
O806        C813   1.281       .  A
O807       Ni810   1.923       .  S
O807        C812   1.282       .  A
O808       Ni934   1.916       .  S
O808        C811   1.279       .  A
Ni809       O926   1.921       .  S
Ni809       O927   1.917       .  S
Ni810       O930   1.918       .  S
Ni810       O932   1.921       .  S
C811        C978   1.469       .  S
C812        C857   1.472       .  S
O815       Ni823   1.920       .  S
O816       Ni823   1.920       .  S
O817       Ni823   1.921       .  S
O818       Ni823   1.911       .  S
O819       Ni824   1.927       .  S
O819        C828   1.282       .  A
O820       Ni824   1.915       .  S
O820        C827   1.279   1_565  A
O821       Ni824   1.918       .  S
O821        C826   1.281   1_565  A
O822       Ni824   1.917       .  S
O822        C825   1.280       .  A
C825        C842   1.470       .  S
C826        C838   1.473       .  S
C827        C829   1.435       .  S
C828        C831   1.438       .  S
C829        C830   1.206       .  T
C831        C832   1.207       .  T
C837        C838   1.343   1_565  D
C838        H840   1.087       .  S
C841        C842   1.341       .  D
C842        H844   1.087       .  S
C845        C846   1.342   1_455  D
C846        H848   1.087       .  S
C849        C850   1.340   1_655  D
C849        H851   1.086       .  S
C853        C854   1.341       .  D
C854        C935   1.472       .  S
C854        H980   1.087       .  S
H856        C978   1.087   1_556  S
C857        C858   1.343       .  D
C857        H983   1.087       .  S
H859        C981   1.086       .  S
C861        C862   1.342       .  D
C862        H988   1.087       .  S
H864        C986   1.086       .  S
C865        C866   1.341       .  D
C866        C907   1.471       .  S
C866        H868   1.087   1_554  S
O871       Ni877   1.912       .  S
O871        C881   1.281       .  A
O874       Ni878   1.909       .  S
O875        C880   1.280       .  A
O876        C879   1.281       .  A
C880        C982   1.472       .  S
C881        C986   1.477       .  S
C882        C989   1.476       .  S
O883       Ni891   1.914   1_545  S
O883        C893   1.281       .  A
O885        C895   1.282   1_455  A
O887       Ni892   1.920   1_565  S
O887        C896   1.281   1_455  A
O889        C894   1.280       .  A
Ni891      Ni892   2.391   1_665  S
C893        C965   1.474       .  S
C894        C961   1.470   1_545  S
C895        C973   1.474       .  S
C896        C969   1.472   1_655  S
O897       Ni905   1.923       .  S
O900       Ni905   1.909       .  S
O901       Ni906   1.921       .  S
O901        C910   1.281       .  A
O902        C909   1.280       .  A
O903       Ni906   1.927       .  S
O903        C908   1.283       .  A
O904        C907   1.280       .  A
C908        C985   1.473       .  S
C909        C957   1.434       .  S
C910        C959   1.434       .  S
O911       Ni919   1.916       .  S
O912       Ni919   1.917       .  S
O913       Ni919   1.911       .  S
O914       Ni919   1.922       .  S
O915       Ni920   1.914       .  S
O915        C924   1.279       .  A
O916       Ni920   1.923       .  S
O916        C923   1.281       .  A
O917       Ni920   1.922       .  S
O917        C922   1.281   1_655  A
O918       Ni920   1.921       .  S
O918        C921   1.281       .  A
C921        C970   1.471       .  S
C922        C974   1.468       .  S
C923        C960   1.433       .  S
C924        C958   1.434       .  S
O925       Ni933   1.918       .  S
O928       Ni933   1.913       .  S
O929       Ni934   1.914   1_556  S
O929        C938   1.279       .  A
O930        C937   1.280       .  A
O931       Ni934   1.917       .  S
O931        C936   1.281       .  A
O932        C935   1.281       .  A
C936        C981   1.471       .  S
O939       Ni947   1.917       .  S
O940       Ni947   1.916       .  S
O941       Ni947   1.923       .  S
O942       Ni947   1.914       .  S
O943       Ni948   1.927       .  S
O943        C952   1.282       .  A
O944       Ni948   1.917       .  S
O944        C951   1.280   1_565  A
O945       Ni948   1.914       .  S
O945        C950   1.281   1_565  A
O946       Ni948   1.916       .  S
O946        C949   1.280       .  A
C949        C966   1.472       .  S
C950        C962   1.471       .  S
C951        C953   1.438       .  S
C952        C955   1.438       .  S
C953        C954   1.208       .  T
C955        C956   1.208       .  T
C961        C962   1.342   1_565  D
C962        H964   1.087       .  S
C965        C966   1.342   1_545  D
C966        H968   1.087       .  S
C969        C970   1.342   1_455  D
C970        H972   1.086       .  S
C973        C974   1.341   1_655  D
C973        H975   1.086       .  S
C977        C978   1.341       .  D
C981        C982   1.341   1_554  D
C985        C986   1.343       .  D
C989        C990   1.342       .  D
C990        H992   1.087       .  S
