geometry optimzed in LAMMPS
_audit_creation_date              2020-11-30 
_audit_creation_method            'lammps2cif' 
_symmetry_space_group_name_H-M    'P1' 
_symmetry_Int_Tables_number       1 
_symmetry_cell_setting            triclinic 
loop_ 
_symmetry_equiv_pos_as_xyz 
  x,y,z 
_cell_length_a                    62.30140698346073 
_cell_length_b                    62.34864494264152 
_cell_length_c                    62.29462209944423 
_cell_angle_alpha                 90.02555150330429 
_cell_angle_beta                  90.0113709600296 
_cell_angle_gamma                 90.05920087411718 
loop_ 
_atom_site_label 
_atom_site_type_symbol 
_atom_site_fract_x 
_atom_site_fract_y 
_atom_site_fract_z 
_atom_site_charge 
N1          N  0.65060780  0.15150605  0.80470771    -0.26950
N2          N  0.65269607  0.13121213  0.81040856    -0.34800
C3          C  0.65488098  0.11908675  0.79270639     0.01390
C4          C  0.65383723  0.13240074  0.77499039     0.07420
C5          C  0.65104795  0.15284169  0.78317352    -0.05680
H6          H  0.65724097  0.10190097  0.79276097     0.08090
H7          H  0.65038496  0.16767554  0.77420719     0.09290
Cu8        Cu  0.65283025  0.12119646  0.84198793     0.44170
Cu9        Cu  0.64955823  0.17642604  0.82664358     0.41990
Cu10       Cu  0.64919258  0.16260183  0.88321946     0.43880
N11         N  0.65185002  0.11496489  0.87452302    -0.34330
N12         N  0.65044531  0.12987619  0.88958765    -0.28590
C13         C  0.65021852  0.12026400  0.90893300    -0.04690
C14         C  0.65153544  0.09840160  0.90570643     0.07530
C15         C  0.65250719  0.09553128  0.88381783     0.01330
H16         H  0.64916031  0.12857343  0.92413696     0.08980
H17         H  0.65357430  0.08048153  0.87523890     0.08060
N18         N  0.65046199  0.19395206  0.87186593    -0.35780
N19         N  0.65117525  0.19875818  0.85120644    -0.27960
C20         C  0.65396425  0.22000694  0.84899917    -0.03200
C21         C  0.65483744  0.22914332  0.86921960     0.05410
C22         C  0.65244737  0.21215572  0.88336655     0.03500
H23         H  0.65554335  0.22814807  0.83375303     0.08610
H24         H  0.65312189  0.21283868  0.90070136     0.07440
N25         N  0.93139750  0.19807181  0.57530123    -0.26950
N26         N  0.95178826  0.19343169  0.57174118    -0.34800
C27         C  0.96336525  0.21169563  0.57246008     0.01390
C28         C  0.94953814  0.22847763  0.57698968     0.07420
C29         C  0.92946067  0.21923800  0.57874458    -0.05680
H30         H  0.98064175  0.21253576  0.57094790     0.08090
H31         H  0.91456136  0.22726546  0.58259541     0.09290
Cu32       Cu  0.96269731  0.16205760  0.56874936     0.44170
Cu33       Cu  0.90700709  0.17558970  0.57587338     0.41990
Cu34       Cu  0.92097951  0.12040719  0.56805248     0.43880
N35         N  0.96874484  0.12925310  0.56935688    -0.34330
N36         N  0.95364666  0.11428599  0.56913518    -0.28590
C37         C  0.96295392  0.09486219  0.57021109    -0.04690
C38         C  0.98485353  0.09780735  0.57116932     0.07530
C39         C  0.98807145  0.11969592  0.57057150     0.01330
H40         H  0.95438245  0.07976960  0.57030946     0.08980
H41         H  0.00327016  0.12807337  0.57102121     0.08060
N42         N  0.88954471  0.13092396  0.57041825    -0.35780
N43         N  0.88460291  0.15118942  0.57416809    -0.27960
C44         C  0.86331844  0.15283174  0.57710154    -0.03200
C45         C  0.85441184  0.13268738  0.57475419     0.05410
C46         C  0.87143493  0.11911952  0.57053714     0.03500
H47         H  0.85501093  0.16751232  0.58114983     0.08610
H48         H  0.87085357  0.10185890  0.56888743     0.07440
N49         N  0.92914502  0.45016493  0.80340515    -0.26950
N50         N  0.94957857  0.44878821  0.80898124    -0.34800
C51         C  0.96130396  0.44405876  0.79145645     0.01390
C52         C  0.94759864  0.44267011  0.77400333     0.07420
C53         C  0.92735858  0.44671083  0.78216998    -0.05680
H54         H  0.97849172  0.44161495  0.79146428     0.08090
H55         H  0.91231006  0.44611762  0.77351695     0.09290
Cu56       Cu  0.96037075  0.45278191  0.84033996     0.44170
Cu57       Cu  0.90427743  0.45351877  0.82524283     0.41990
Cu58       Cu  0.91916023  0.45280435  0.88142845     0.43880
N59         N  0.96669893  0.45719511  0.87285103    -0.34330
N60         N  0.95165529  0.45720215  0.88785256    -0.28590
C61         C  0.96098595  0.45996120  0.90716599    -0.04690
C62         C  0.98287102  0.46178377  0.90411102     0.07530
C63         C  0.98598621  0.45994899  0.88223472     0.01330
H64         H  0.95248591  0.46024137  0.92231275     0.08980
H65         H  0.00115604  0.46021699  0.87377647     0.08060
N66         N  0.88783939  0.44885667  0.87050781    -0.35780
N67         N  0.88235226  0.45024129  0.85004720    -0.27960
C68         C  0.86111874  0.44683639  0.84817488    -0.03200
C69         C  0.85285809  0.44281770  0.86838347     0.05410
C70         C  0.87025347  0.44416444  0.88216466     0.03500
H71         H  0.85252814  0.44625543  0.83308954     0.08610
H72         H  0.87017997  0.44171725  0.89935464     0.07440
N73         N  0.73688803  0.39653701  0.89030547    -0.26950
N74         N  0.73048134  0.41671284  0.88963841    -0.34800
C75         C  0.74763079  0.42951951  0.88692120     0.01390
C76         C  0.76578458  0.41679781  0.88613208     0.07420
C77         C  0.75840323  0.39595944  0.88841898    -0.05680
H78         H  0.74691221  0.44679556  0.88554974     0.08090
H79         H  0.76785873  0.38143207  0.88788043     0.09290
Cu80       Cu  0.69868428  0.42568535  0.89225962     0.44170
Cu81       Cu  0.71551347  0.37103078  0.89179189     0.41990
Cu82       Cu  0.65855116  0.38359806  0.89802118     0.43880
N83         N  0.66617236  0.43136673  0.89532160    -0.34330
N84         N  0.65142852  0.41621986  0.89746205    -0.28590
C85         C  0.63195557  0.42553998  0.89851182    -0.04690
C86         C  0.63479163  0.44746628  0.89699224     0.07530
C87         C  0.65656514  0.45064600  0.89501427     0.01330
H88         H  0.61692371  0.41698895  0.90005072     0.08980
H89         H  0.66484261  0.46580099  0.89327006     0.08060
N90         N  0.67056416  0.35260032  0.89487078    -0.35780
N91         N  0.69112865  0.34831753  0.89173416    -0.27960
C92         C  0.69339741  0.32723896  0.88786474    -0.03200
C93         C  0.67340430  0.31768966  0.88895149     0.05410
C94         C  0.65927596  0.33419485  0.89351606     0.03500
H95         H  0.70848131  0.31948273  0.88418309     0.08610
H96         H  0.64197955  0.33309392  0.89462179     0.07440
N97         N  0.97083553  0.39641909  0.65823915    -0.26950
N98         N  0.96958870  0.41654154  0.65173884    -0.34800
C99         C  0.96649700  0.42932908  0.66883273     0.01390
C100        C  0.96604267  0.41666295  0.68704995     0.07420
C101        C  0.96893296  0.39587113  0.67975741    -0.05680
H102        H  0.96461132  0.44655178  0.66802762     0.08090
H103        H  0.96875986  0.38136709  0.68927065     0.09290
Cu104      Cu  0.97178598  0.42547576  0.61987949     0.44170
Cu105      Cu  0.97287512  0.37085334  0.63698684     0.41990
Cu106      Cu  0.97583474  0.38329606  0.57971870     0.43880
N107        N  0.97432639  0.43110396  0.58729540    -0.34330
N108        N  0.97580254  0.41589912  0.57253893    -0.28590
C109        C  0.97673900  0.42516824  0.55303079    -0.04690
C110        C  0.97582633  0.44712655  0.55584653     0.07530
C111        C  0.97433142  0.45037699  0.57765308     0.01330
H112        H  0.97781315  0.41656415  0.53799038     0.08980
H113        H  0.97313571  0.46558163  0.58593238     0.08060
N114        N  0.97354660  0.35232416  0.59197595    -0.35780
N115        N  0.97210431  0.34802882  0.61271973    -0.27960
C116        C  0.96907677  0.32685353  0.61531659    -0.03200
C117        C  0.96871765  0.31722086  0.59529145     0.05410
C118        C  0.97171704  0.33387051  0.58085071     0.03500
H119        H  0.96697584  0.31911719  0.63070610     0.08610
H120        H  0.97162149  0.33280573  0.56352249     0.07440
N121        N  0.68835454  0.10748094  0.65633289    -0.26950
N122        N  0.66805362  0.11021130  0.65087982    -0.34800
C123        C  0.65636233  0.11346280  0.66873434     0.01390
C124        C  0.67000434  0.11248026  0.68625346     0.07420
C125        C  0.69014269  0.10860491  0.67778452    -0.05680
H126        H  0.63928206  0.11656257  0.66890523     0.08090
H127        H  0.70515443  0.10772684  0.68646488     0.09290
Cu128      Cu  0.65774451  0.11003838  0.61930463     0.44170
Cu129      Cu  0.71297680  0.10508507  0.63430801     0.41990
Cu130      Cu  0.69955959  0.10725122  0.57803529     0.43880
N131        N  0.65180312  0.10908325  0.58662665    -0.34330
N132        N  0.66686450  0.10804245  0.57166837    -0.28590
C133        C  0.65744557  0.10795007  0.55223362    -0.05890
C134        C  0.63554413  0.10896784  0.55524114     0.07530
C135        C  0.63244070  0.10964447  0.57712000     0.01330
H136        H  0.66593802  0.10732159  0.53709206     0.08980
H137        H  0.61727866  0.11060134  0.58554495     0.08060
N138        N  0.73084328  0.10798040  0.58946208    -0.35780
N139        N  0.73552589  0.10724606  0.61012891    -0.27960
C140        C  0.75677588  0.10965263  0.61268203    -0.03200
C141        C  0.76607150  0.11198572  0.59263553     0.05410
C142        C  0.74911549  0.11072848  0.57824695     0.03500
H143        H  0.76472565  0.11010992  0.62809156     0.08610
H144        H  0.74983888  0.11263820  0.56101869     0.07440
N145        N  0.23643207  0.44743200  0.85041039    -0.26950
N146        N  0.23125380  0.44764712  0.87098649    -0.34800
C147        C  0.24907941  0.44393396  0.88267060     0.01390
C148        C  0.26628423  0.44148936  0.86872937     0.07420
C149        C  0.25760506  0.44387568  0.84843163    -0.05680
H150        H  0.24945208  0.44295641  0.90000521     0.08090
H151        H  0.26589036  0.44225048  0.83325391     0.09290
Cu152      Cu  0.19989211  0.45247334  0.88176743     0.44170
Cu153      Cu  0.21435042  0.44962063  0.82574133     0.41990
Cu154      Cu  0.15850770  0.45449263  0.84011148     0.43880
N155        N  0.16729053  0.45732884  0.88790586    -0.34330
N156        N  0.15233691  0.45808970  0.87280764    -0.28590
C157        C  0.13303075  0.46083484  0.88216325    -0.04690
C158        C  0.13599991  0.46187569  0.90411779     0.07530
C159        C  0.15784479  0.45959026  0.90724158     0.01330
H160        H  0.11794018  0.46162383  0.87362146     0.08980
H161        H  0.16622697  0.45921811  0.92243639     0.08060
N162        N  0.16909603  0.44953608  0.80877645    -0.35780
N163        N  0.18964047  0.44802358  0.80365097    -0.27960
C164        C  0.19140880  0.44371254  0.78258596    -0.03200
C165        C  0.17102834  0.44254176  0.77402306     0.05410
C166        C  0.15721384  0.44618654  0.79101136     0.03500
H167        H  0.20640174  0.44084225  0.77429523     0.08610
H168        H  0.13985038  0.44576300  0.79062935     0.07440
N169        N  0.23542805  0.15177832  0.57221568    -0.26950
N170        N  0.23043212  0.13130019  0.57017941    -0.34800
C171        C  0.24850455  0.11954853  0.57110807     0.01390
C172        C  0.26566841  0.13338504  0.57406637     0.07420
C173        C  0.25673830  0.15368751  0.57465679    -0.05680
H174        H  0.24897067  0.10222014  0.57064625     0.08090
H175        H  0.26500949  0.16874851  0.57702101     0.09290
Cu176      Cu  0.19903471  0.12076732  0.56833210     0.44170
Cu177      Cu  0.21304412  0.17609906  0.57270298     0.41990
Cu178      Cu  0.15713846  0.16243148  0.56855210     0.43880
N179        N  0.16641927  0.11472717  0.56916526    -0.34330
N180        N  0.15128682  0.12963232  0.56923651    -0.28590
C181        C  0.13198582  0.11999737  0.57031037    -0.04690
C182        C  0.13528802  0.09814632  0.57097213     0.07530
C183        C  0.15717123  0.09527621  0.57019119     0.01330
H184        H  0.11675381  0.12830027  0.57062788     0.08980
H185        H  0.16578076  0.08021802  0.57039030     0.08060
N186        N  0.16814036  0.19380273  0.57081053    -0.35780
N187        N  0.18871491  0.19848951  0.57295437    -0.27960
C188        C  0.19092155  0.21967880  0.57596000    -0.03200
C189        C  0.17077376  0.22891759  0.57554544     0.05410
C190        C  0.15665583  0.21205919  0.57212847     0.03500
H191        H  0.20609518  0.22769606  0.57858848     0.08610
H192        H  0.13932265  0.21285605  0.57168682     0.07440
N193        N  0.46584851  0.15176348  0.80476450    -0.26950
N194        N  0.46621826  0.13130256  0.81018336    -0.34800
C195        C  0.46506764  0.11924207  0.79233821     0.01390
C196        C  0.46405135  0.13281902  0.77477806     0.07420
C197        C  0.46463684  0.15333788  0.78329261    -0.05680
H198        H  0.46483698  0.10190117  0.79223656     0.08090
H199        H  0.46351416  0.16831937  0.77463359     0.09290
Cu200      Cu  0.46754074  0.12106121  0.84164414     0.44170
Cu201      Cu  0.46571877  0.17638595  0.82699556     0.41990
Cu202      Cu  0.47016612  0.16248163  0.88328276     0.43880
N203        N  0.46805237  0.11478360  0.87416791    -0.34330
N204        N  0.46903944  0.12961655  0.88935491    -0.28590
C205        C  0.46873036  0.11985889  0.90863657    -0.04690
C206        C  0.46748639  0.09800472  0.90523253     0.07530
C207        C  0.46712301  0.09528984  0.88331246     0.01330
H208        H  0.46932104  0.12806522  0.92392124     0.08980
H209        H  0.46621628  0.08030173  0.87460560     0.08060
N210        N  0.46800809  0.19393300  0.87214343    -0.35780
N211        N  0.46550603  0.19865983  0.85160156    -0.27960
C212        C  0.46236606  0.21986058  0.84954373    -0.03200
C213        C  0.46322649  0.22907316  0.86969478     0.05410
C214        C  0.46692875  0.21220314  0.88369351     0.03500
H215        H  0.45937348  0.22793976  0.83447718     0.08610
H216        H  0.46767926  0.21300667  0.90101897     0.07440
N217        N  0.38292558  0.39729713  0.89071937    -0.26950
N218        N  0.38930378  0.41746296  0.88929953    -0.34800
C219        C  0.37206532  0.43011857  0.88645730     0.01390
C220        C  0.35393087  0.41731052  0.88647152     0.07420
C221        C  0.36137407  0.39659124  0.88926593    -0.05680
H222        H  0.37269469  0.44733640  0.88443288     0.08090
H223        H  0.35192388  0.38203465  0.88929921     0.09290
Cu224      Cu  0.42123111  0.42652775  0.89122944     0.44170
Cu225      Cu  0.40433061  0.37185948  0.89231837     0.41990
Cu226      Cu  0.46154096  0.38431793  0.89577902     0.43880
N227        N  0.45386320  0.43220933  0.89409693    -0.34330
N228        N  0.46863423  0.41704815  0.89577055    -0.28590
C229        C  0.48811097  0.42641313  0.89698098    -0.04690
C230        C  0.48528400  0.44838502  0.89605671     0.07530
C231        C  0.46347775  0.45152475  0.89425715     0.01330
H232        H  0.50315451  0.41786350  0.89827530     0.08980
H233        H  0.45517580  0.46670111  0.89298899     0.08060
N234        N  0.44928069  0.35324995  0.89328353    -0.35780
N235        N  0.42854322  0.34902072  0.89146334    -0.27960
C236        C  0.42588692  0.32787525  0.88824312    -0.03200
C237        C  0.44584391  0.31816626  0.88824595     0.05410
C238        C  0.46033222  0.33473440  0.89160217     0.03500
H239        H  0.41051265  0.32018061  0.88582232     0.08610
H240        H  0.47764956  0.33355908  0.89183701     0.07440
N241        N  0.38342910  0.10681414  0.60994668    -0.26950
N242        N  0.38820007  0.10487642  0.58936239    -0.34800
C243        C  0.37011505  0.10696531  0.57772738     0.01390
C244        C  0.35334142  0.11070368  0.59175140     0.07420
C245        C  0.36233854  0.11061486  0.61198543    -0.05680
H246        H  0.36946131  0.10711887  0.56036898     0.08090
H247        H  0.35426149  0.11369163  0.62705271     0.09290
Cu248      Cu  0.41945696  0.10292015  0.57827336     0.44170
Cu249      Cu  0.40570711  0.10583957  0.63441869     0.41990
Cu250      Cu  0.46104623  0.10875898  0.61937640     0.43880
N251        N  0.45200710  0.10506232  0.57187881    -0.34330
N252        N  0.46700944  0.10723856  0.58677457    -0.28590
C253        C  0.48628997  0.10871580  0.57721916    -0.04690
C254        C  0.48315340  0.10748376  0.55537549     0.07530
C255        C  0.46135352  0.10517480  0.55242614     0.01330
H256        H  0.50137932  0.11071845  0.58557201     0.08980
H257        H  0.45287536  0.10386787  0.53733146     0.08060
N258        N  0.45076917  0.10954807  0.65090010    -0.35780
N259        N  0.43039888  0.10744199  0.65640977    -0.27960
C260        C  0.42871237  0.10862891  0.67786638    -0.03200
C261        C  0.44898034  0.11192914  0.68618083     0.05410
C262        C  0.46260296  0.11257974  0.66869683     0.03500
H263        H  0.41373245  0.10827906  0.68664938     0.08610
H264        H  0.47974908  0.11538592  0.66886093     0.07440
N265        N  0.15143589  0.39620222  0.65736886    -0.26950
N266        N  0.14941671  0.41641944  0.65148504    -0.34800
C267        C  0.15096899  0.42904016  0.66891326     0.01390
C268        C  0.15414490  0.41613406  0.68679502     0.07420
C269        C  0.15430883  0.39535065  0.67873705    -0.05680
H270        H  0.15006836  0.44633573  0.66841267     0.08090
H271        H  0.15677067  0.38064294  0.68755889     0.09290
Cu272      Cu  0.14568039  0.42560789  0.61983433     0.44170
Cu273      Cu  0.15091656  0.37102744  0.63568352     0.41990
Cu274      Cu  0.14272244  0.38340842  0.57916588     0.43880
N275        N  0.14398524  0.43119502  0.58718049    -0.34330
N276        N  0.14292820  0.41603794  0.57232767    -0.28590
C277        C  0.14282309  0.42534878  0.55282848    -0.04690
C278        C  0.14385038  0.44727397  0.55574367     0.07530
C279        C  0.14455248  0.45048156  0.57758972     0.01330
H280        H  0.14229858  0.41678539  0.53773392     0.08980
H281        H  0.14566265  0.46565669  0.58593556     0.08060
N282        N  0.14615444  0.35245110  0.59102740    -0.35780
N283        N  0.14990845  0.34825586  0.61149814    -0.27960
C284        C  0.15355149  0.32717075  0.61381069    -0.03200
C285        C  0.15179191  0.31751965  0.59391852     0.05410
C286        C  0.14697735  0.33398281  0.57981065     0.03500
H287        H  0.15756071  0.31949218  0.62884982     0.08610
H288        H  0.14533012  0.33280633  0.56256458     0.07440
N289        N  0.48184999  0.84550920  0.85108354    -0.26950
N290        N  0.48557350  0.85074390  0.87128653    -0.34800
C291        C  0.48359741  0.83311419  0.88358192     0.01390
C292        C  0.47805042  0.81611197  0.87040572     0.07420
C293        C  0.47707890  0.82455272  0.84993231    -0.05680
H294        H  0.48464543  0.83299597  0.90091125     0.08090
H295        H  0.47254952  0.81625884  0.83536478     0.09290
Cu296      Cu  0.48927833  0.88225078  0.88104007     0.44170
Cu297      Cu  0.48148905  0.86734451  0.82631582     0.41990
Cu298      Cu  0.48583920  0.92347669  0.83899976     0.43880
N299        N  0.48701582  0.91486965  0.88679539    -0.34330
N300        N  0.48565449  0.92976659  0.87171058    -0.28590
C301        C  0.48285506  0.94899114  0.88111631    -0.04690
C302        C  0.48243182  0.94590149  0.90302703     0.07530
C303        C  0.48510936  0.92420807  0.90615082     0.01330
H304        H  0.48079305  0.96396869  0.87260353     0.08980
H305        H  0.48514013  0.91573438  0.92129568     0.08060
N306        N  0.48247528  0.91194278  0.80795045    -0.35780
N307        N  0.48045329  0.89129783  0.80361771    -0.27960
C308        C  0.47630163  0.88877953  0.78264930    -0.03200
C309        C  0.47572734  0.90881455  0.77320455     0.05410
C310        C  0.47985304  0.92317520  0.78968488     0.03500
H311        H  0.47333492  0.87348734  0.77501385     0.08610
H312        H  0.47971863  0.94049124  0.78872742     0.07440
N313        N  0.19025060  0.84564404  0.56006207    -0.26950
N314        N  0.16976457  0.85077107  0.55823393    -0.34800
C315        C  0.15780340  0.83297692  0.56086993     0.01390
C316        C  0.17147717  0.81591445  0.56482288     0.07420
C317        C  0.19191891  0.82457258  0.56415254    -0.05680
H318        H  0.14045130  0.83273181  0.56114645     0.08090
H319        H  0.20691179  0.81632196  0.56700589     0.09290
Cu320      Cu  0.15929769  0.88220127  0.55530331     0.44170
Cu321      Cu  0.21496276  0.86767568  0.55891342     0.41990
Cu322      Cu  0.20080504  0.92367093  0.55677182     0.43880
N323        N  0.15310141  0.91487454  0.55633024    -0.34330
N324        N  0.16811883  0.92990181  0.55691555    -0.28590
C325        C  0.15866392  0.94921778  0.55866180    -0.04690
C326        C  0.13675550  0.94608702  0.55921239     0.07530
C327        C  0.13370585  0.92423439  0.55770197     0.01330
H328        H  0.16713962  0.96431788  0.55986951     0.08980
H329        H  0.11858645  0.91571394  0.55802206     0.08060
N330        N  0.23214165  0.91278804  0.55907619    -0.35780
N331        N  0.23718867  0.89221092  0.55986016    -0.27960
C332        C  0.25839461  0.89025490  0.56315620    -0.03200
C333        C  0.26708709  0.91055693  0.56434528     0.05410
C334        C  0.25007539  0.92451733  0.56183719     0.03500
H335        H  0.26668183  0.87520012  0.56551382     0.08610
H336        H  0.25052130  0.94182531  0.56298223     0.07440
N337        N  0.23449977  0.62290173  0.85604628    -0.26950
N338        N  0.22929205  0.62051494  0.87647212    -0.34800
C339        C  0.24702767  0.62285016  0.88859289     0.01390
C340        C  0.26427626  0.62660969  0.87508925     0.07420
C341        C  0.25572267  0.62651964  0.85457790    -0.05680
H342        H  0.24742235  0.62131476  0.90588924     0.08090
H343        H  0.26425214  0.62908033  0.83967011     0.09290
Cu344      Cu  0.19853308  0.61278017  0.88651798     0.44170
Cu345      Cu  0.21242716  0.62165233  0.83114402     0.41990
Cu346      Cu  0.15686950  0.61291588  0.84531078     0.43880
N347        N  0.16711431  0.60314245  0.89176331    -0.34330
N348        N  0.15196201  0.60318815  0.87686288    -0.28590
C349        C  0.13349269  0.59618425  0.88562685    -0.04690
C350        C  0.13733376  0.59147269  0.90692928     0.07530
C351        C  0.15870032  0.59612052  0.91036752     0.01330
H352        H  0.11834753  0.59504035  0.87721866     0.08980
H353        H  0.16740207  0.59493044  0.92534197     0.08060
N354        N  0.16697299  0.62045856  0.81440587    -0.35780
N355        N  0.18743413  0.62255224  0.80915670    -0.27960
C356        C  0.18896216  0.62580743  0.78788096    -0.03200
C357        C  0.16847970  0.62607020  0.77933394     0.05410
C358        C  0.15489495  0.62274921  0.79661141     0.03500
H359        H  0.20389095  0.62804007  0.77929424     0.08610
H360        H  0.13757828  0.62143856  0.79617844     0.07440
N361        N  0.43204890  0.70237685  0.90098991    -0.26950
N362        N  0.45236113  0.69657383  0.90275692    -0.34800
C363        C  0.46493612  0.71388534  0.89989706     0.01390
C364        C  0.45185535  0.73132251  0.89580136     0.07420
C365        C  0.43111743  0.72343744  0.89658117    -0.05680
H366        H  0.48228983  0.71353809  0.89954961     0.08090
H367        H  0.41644140  0.73222746  0.89365985     0.09290
Cu368      Cu  0.46185858  0.66492685  0.90563692     0.44170
Cu369      Cu  0.40663456  0.68115646  0.90292827     0.41990
Cu370      Cu  0.41976407  0.62464972  0.90018231     0.43880
N371        N  0.46757248  0.63226671  0.90412451    -0.34330
N372        N  0.45241849  0.61752250  0.90197280    -0.28590
C373        C  0.46177069  0.59807939  0.90072492    -0.04690
C374        C  0.48373813  0.60089339  0.90210659     0.07530
C375        C  0.48688935  0.62266607  0.90424088     0.01330
H376        H  0.45323224  0.58310389  0.89870822     0.08980
H377        H  0.50207602  0.63098134  0.90548079     0.08060
N378        N  0.38850482  0.63654020  0.89940670    -0.35780
N379        N  0.38383095  0.65711603  0.90157017    -0.27960
C380        C  0.36245028  0.65971510  0.90033322    -0.03200
C381        C  0.35321130  0.63987687  0.89689596     0.05410
C382        C  0.37015882  0.62553932  0.89626073     0.03500
H383        H  0.35435805  0.67505419  0.90061987     0.08610
H384        H  0.36925060  0.60846289  0.89332363     0.07440
N385        N  0.14395321  0.70133825  0.61055873    -0.26950
N386        N  0.14133154  0.69549063  0.59033231    -0.34800
C387        C  0.14344755  0.71284534  0.57765786     0.01390
C388        C  0.14796906  0.73031702  0.59057810     0.07420
C389        C  0.14826322  0.72244363  0.61130693    -0.05680
H390        H  0.14306082  0.71251841  0.56030194     0.08090
H391        H  0.15185939  0.73128966  0.62581391     0.09290
Cu392      Cu  0.13850872  0.66369092  0.58101774     0.44170
Cu393      Cu  0.14301574  0.68013779  0.63606609     0.41990
Cu394      Cu  0.14526516  0.62351092  0.62315877     0.43880
N395        N  0.14028734  0.63095791  0.57533191    -0.34330
N396        N  0.14292192  0.61627154  0.59045345    -0.28590
C397        C  0.14410911  0.59681027  0.58106586    -0.04690
C398        C  0.14218125  0.59952967  0.55911057     0.07530
C399        C  0.13979335  0.62129039  0.55602432     0.01330
H400        H  0.14640062  0.58186587  0.58957342     0.08980
H401        H  0.13807428  0.62955581  0.54086409     0.08060
N402        N  0.14632909  0.63559016  0.65445647    -0.35780
N403        N  0.14441991  0.65622120  0.65901571    -0.27960
C404        C  0.14553132  0.65894930  0.68040050    -0.03200
C405        C  0.14863933  0.63913779  0.68982671     0.05410
C406        C  0.14916495  0.62468134  0.67290959     0.03500
H407        H  0.14521365  0.67434625  0.68839786     0.08610
H408        H  0.15165339  0.60754519  0.67392866     0.07440
N409        N  0.38422722  0.92798740  0.60966870    -0.26950
N410        N  0.38972512  0.93067742  0.58939101    -0.34800
C411        C  0.37207631  0.92975245  0.57706841     0.01390
C412        C  0.35444022  0.92628431  0.59020158     0.07420
C413        C  0.36286282  0.92529075  0.61082695    -0.05680
H414        H  0.37230578  0.93120909  0.55977922     0.08090
H415        H  0.35428793  0.92248081  0.62564917     0.09290
Cu416      Cu  0.42097055  0.93452462  0.57925429     0.44170
Cu417      Cu  0.40618605  0.92760564  0.63461793     0.41990
Cu418      Cu  0.46166304  0.93825373  0.62048904     0.43880
N419        N  0.45338586  0.93641519  0.57298221    -0.34330
N420        N  0.46830103  0.93783276  0.58802459    -0.28590
C421        C  0.48774245  0.93783381  0.57868517    -0.04690
C422        C  0.48472529  0.93638000  0.55682754     0.07530
C423        C  0.46288063  0.93551315  0.55365110     0.01330
H424        H  0.50285915  0.93848017  0.58720178     0.08980
H425        H  0.45449667  0.93399266  0.53852208     0.08060
N426        N  0.45112155  0.93384965  0.65159133    -0.35780
N427        N  0.43108753  0.92894317  0.65659698    -0.27960
C428        C  0.42996965  0.92475774  0.67771252    -0.03200
C429        C  0.45020861  0.92743910  0.68641403     0.05410
C430        C  0.46322622  0.93328465  0.66944802     0.03500
H431        H  0.41554065  0.91985938  0.68605017     0.08610
H432        H  0.48040560  0.93582969  0.66983229     0.07440
N433        N  0.93128609  0.84460022  0.55849709    -0.26950
N434        N  0.95140308  0.85087621  0.56102404    -0.34800
C435        C  0.96367201  0.83378119  0.56559731     0.01390
C436        C  0.95072820  0.81579343  0.56572066     0.07420
C437        C  0.93029527  0.82318073  0.56105570    -0.05680
H438        H  0.98067228  0.83448894  0.56905080     0.08090
H439        H  0.91563419  0.81387670  0.56081103     0.09290
Cu440      Cu  0.96131511  0.88240880  0.55972170     0.44170
Cu441      Cu  0.90588605  0.86596239  0.55518664     0.41990
Cu442      Cu  0.92019785  0.92252724  0.56063368     0.43880
N443        N  0.96770192  0.91485433  0.55963204    -0.34330
N444        N  0.95259659  0.92972114  0.56002559    -0.28590
C445        C  0.96191799  0.94917234  0.56076188    -0.04690
C446        C  0.98385231  0.94620591  0.56083836     0.07530
C447        C  0.98705136  0.92436710  0.56010786     0.01330
H448        H  0.95336300  0.96424173  0.56161038     0.08980
H449        H  0.00223662  0.91597573  0.56035788     0.08060
N450        N  0.88908027  0.91098371  0.56157755    -0.35780
N451        N  0.88372931  0.89066161  0.55855256    -0.27960
C452        C  0.86232976  0.88866559  0.56069894    -0.03200
C453        C  0.85395840  0.90860178  0.56562363     0.05410
C454        C  0.87133422  0.92235042  0.56612829     0.03500
H455        H  0.85368797  0.87362987  0.56000393     0.08610
H456        H  0.87116782  0.93927420  0.56994579     0.07440
N457        N  0.63867512  0.84488985  0.85171481    -0.26950
N458        N  0.63987307  0.85123851  0.87190972    -0.34800
C459        C  0.64357526  0.83416700  0.88451547     0.01390
C460        C  0.64442335  0.81615990  0.87162393     0.07420
C461        C  0.64116596  0.82348372  0.85092486    -0.05680
H462        H  0.64596864  0.83489257  0.90169840     0.08090
H463        H  0.64186352  0.81415217  0.83629786     0.09290
Cu464      Cu  0.63778752  0.88292294  0.88108497     0.44170
Cu465      Cu  0.63702092  0.86619756  0.82631267     0.41990
Cu466      Cu  0.63409554  0.92321290  0.83913904     0.43880
N467        N  0.63681983  0.91545857  0.88683434    -0.34330
N468        N  0.63549888  0.93028022  0.87169828    -0.28590
C469        C  0.63643260  0.94977017  0.88096300    -0.04690
C470        C  0.63838291  0.94685425  0.90284226     0.07530
C471        C  0.63855840  0.92503018  0.90607052     0.01330
H472        H  0.63618748  0.96484555  0.87237529     0.08980
H473        H  0.64031415  0.91668068  0.92118422     0.08060
N474        N  0.63713260  0.91120283  0.80818669    -0.35780
N475        N  0.63895667  0.89052557  0.80378959    -0.27960
C476        C  0.64362993  0.88813979  0.78288054    -0.03200
C477        C  0.64452472  0.90823095  0.77357465     0.05410
C478        C  0.64019699  0.92250359  0.79002747     0.03500
H479        H  0.64673161  0.87291562  0.77516490     0.08610
H480        H  0.64060151  0.93982597  0.78915763     0.07440
N481        N  0.93701683  0.62592427  0.81094664    -0.26950
N482        N  0.95689527  0.62003083  0.81535459    -0.34800
C483        C  0.96862303  0.62070839  0.79720805     0.01390
C484        C  0.95544009  0.62719147  0.78045647     0.07420
C485        C  0.93550646  0.63035093  0.78987462    -0.05680
H486        H  0.98537834  0.61630126  0.79624668     0.08090
H487        H  0.92091039  0.63552681  0.78205636     0.09290
Cu488      Cu  0.96654622  0.61036009  0.84576159     0.44170
Cu489      Cu  0.91266258  0.62710681  0.83370942     0.41990
Cu490      Cu  0.92429405  0.60646794  0.88656364     0.43880
N491        N  0.97158997  0.60039390  0.87716905    -0.34330
N492        N  0.95632894  0.59890802  0.89189240    -0.28590
C493        C  0.96516362  0.59256081  0.91054960    -0.04690
C494        C  0.98688688  0.58984200  0.90729612     0.07530
C495        C  0.99049950  0.59499284  0.88607868     0.01330
H496        H  0.95647561  0.59058303  0.92546432     0.08980
H497        H  0.00578295  0.59528487  0.87782414     0.08060
N498        N  0.89400678  0.61687261  0.87729296    -0.35780
N499        N  0.89009074  0.62524692  0.85819660    -0.27960
C500        C  0.86942498  0.63136341  0.85731720    -0.03200
C501        C  0.85973572  0.62635952  0.87667824     0.05410
C502        C  0.87579168  0.61710667  0.88895888     0.03500
H503        H  0.86190195  0.63856314  0.84343359     0.08610
H504        H  0.87444941  0.61135398  0.90528366     0.07440
N505        N  0.97976574  0.70136484  0.61145105    -0.26950
N506        N  0.97820141  0.69474168  0.59136581    -0.34800
C507        C  0.97437374  0.71166965  0.57858907     0.01390
C508        C  0.97361592  0.72991497  0.59121613     0.07420
C509        C  0.97720592  0.72278717  0.61197929    -0.05680
H510        H  0.97196410  0.71067269  0.56142596     0.08090
H511        H  0.97692654  0.73229500  0.62650464     0.09290
Cu512      Cu  0.97998724  0.66287414  0.58241171     0.44170
Cu513      Cu  0.98268175  0.68042887  0.63717357     0.41990
Cu514      Cu  0.98046319  0.62300549  0.62457854     0.43880
N515        N  0.98076491  0.63023591  0.57660395    -0.34330
N516        N  0.98085008  0.61543516  0.59182261    -0.28590
C517        C  0.98083848  0.59591608  0.58244656    -0.04690
C518        C  0.98074025  0.59877290  0.56039751     0.07530
C519        C  0.98070232  0.62064667  0.55726632     0.01330
H520        H  0.98070158  0.58083480  0.59102274     0.08980
H521        H  0.98040564  0.62902318  0.54207116     0.08060
N522        N  0.97984722  0.63561317  0.65573756    -0.35780
N523        N  0.98124814  0.65635152  0.66013956    -0.27960
C524        C  0.97957878  0.65920882  0.68148483    -0.03200
C525        C  0.97699459  0.63939306  0.69101009     0.05410
C526        C  0.97705577  0.62478831  0.67426520     0.03500
H527        H  0.97921279  0.67465956  0.68937722     0.08610
H528        H  0.97460166  0.60765171  0.67540547     0.07440
N529        N  0.68998739  0.70185431  0.89978090    -0.26950
N530        N  0.66989336  0.69518791  0.89880666    -0.34800
C531        C  0.65698015  0.71210157  0.89544240     0.01390
C532        C  0.66957980  0.73036131  0.89441814     0.07420
C533        C  0.69043676  0.72327379  0.89733054    -0.05680
H534        H  0.63975822  0.71109390  0.89352019     0.08090
H535        H  0.70493855  0.73280215  0.89664225     0.09290
Cu536      Cu  0.66138468  0.66324918  0.90083530     0.44170
Cu537      Cu  0.71564699  0.68093690  0.90180170     0.41990
Cu538      Cu  0.70414337  0.62336101  0.90269672     0.43880
N539        N  0.65604331  0.63057028  0.90190035    -0.34330
N540        N  0.67132238  0.61583716  0.90248748    -0.28590
C541        C  0.66199610  0.59628636  0.90241762    -0.04690
C542        C  0.63995059  0.59906946  0.90177972     0.07530
C543        C  0.63675399  0.62090939  0.90147766     0.01330
H544        H  0.67060883  0.58123141  0.90259534     0.08980
H545        H  0.62154374  0.62922529  0.90074232     0.08060
N546        N  0.73513426  0.63643221  0.90120835    -0.35780
N547        N  0.73891573  0.65730952  0.90061821    -0.27960
C548        C  0.76003892  0.66068284  0.89795990    -0.03200
C549        C  0.77028875  0.64104481  0.89692415     0.05410
C550        C  0.75399131  0.62598236  0.89917734     0.03500
H551        H  0.76730980  0.67636290  0.89650395     0.08610
H552        H  0.75559254  0.60873853  0.89840213     0.07440
N553        N  0.69019391  0.92937537  0.65719894    -0.26950
N554        N  0.66995119  0.93306524  0.65200600    -0.34800
C555        C  0.65777775  0.93198459  0.66979598     0.01390
C556        C  0.67094978  0.92707951  0.68696842     0.07420
C557        C  0.69138271  0.92549837  0.67839275    -0.05680
H558        H  0.64049605  0.93361728  0.67001584     0.08090
H559        H  0.70601602  0.92158316  0.68687124     0.09290
Cu560      Cu  0.65930774  0.93680633  0.62077734     0.44170
Cu561      Cu  0.71527087  0.92901027  0.63526213     0.41990
Cu562      Cu  0.69984195  0.93227071  0.57957710     0.43880
N563        N  0.65255732  0.93647064  0.58826757    -0.34330
N564        N  0.66743524  0.93475190  0.57322460    -0.28590
C565        C  0.65791595  0.93418403  0.55387862    -0.04690
C566        C  0.63608450  0.93557435  0.55702011     0.07530
C567        C  0.63312188  0.93699414  0.57890069     0.01330
H568        H  0.66627548  0.93255855  0.53873464     0.08980
H569        H  0.61801410  0.93799807  0.58741794     0.08060
N570        N  0.73123162  0.92917312  0.58967687    -0.35780
N571        N  0.73705268  0.92843100  0.61005940    -0.27960
C572        C  0.75850424  0.92621449  0.61112625    -0.03200
C573        C  0.76648707  0.92527566  0.59038362     0.05410
C574        C  0.74871261  0.92719604  0.57722179     0.03500
H575        H  0.76749725  0.92463994  0.62589100     0.08610
H576        H  0.74843335  0.92706759  0.55986591     0.07440
N577        N  0.23486981  0.62036130  0.10882530    -0.26950
N578        N  0.22935564  0.61846212  0.08841375    -0.34800
C579        C  0.24687787  0.62113535  0.07608310     0.01390
C580        C  0.26428269  0.62452124  0.08942539     0.07420
C581        C  0.25612891  0.62388532  0.11005881    -0.05680
H582        H  0.24703886  0.62002916  0.05875400     0.08090
H583        H  0.26494863  0.62605841  0.12486072     0.09290
Cu584      Cu  0.19866428  0.61055001  0.07843180     0.44170
Cu585      Cu  0.21313778  0.61893956  0.13401887     0.41990
Cu586      Cu  0.15768853  0.60960912  0.11965862     0.43880
N587        N  0.16756218  0.60002159  0.07329209    -0.34330
N588        N  0.15260379  0.59962974  0.08835572    -0.28590
C589        C  0.13418786  0.59228476  0.07980202    -0.04690
C590        C  0.13786814  0.58778505  0.05844333     0.07530
C591        C  0.15907495  0.59293491  0.05474815     0.01330
H592        H  0.11913132  0.59093054  0.08835882     0.08980
H593        H  0.16756477  0.59218132  0.03961180     0.08060
N594        N  0.16757202  0.61789299  0.15029989    -0.35780
N595        N  0.18795270  0.62025560  0.15576600    -0.27960
C596        C  0.18913406  0.62424788  0.17695069    -0.03200
C597        C  0.16850347  0.62470353  0.18506003     0.05410
C598        C  0.15520410  0.62070030  0.16777681     0.03500
H599        H  0.20388332  0.62687452  0.18573586     0.08610
H600        H  0.13788878  0.61939119  0.16797786     0.07440
N601        N  0.18950489  0.84508259  0.40280267    -0.26950
N602        N  0.16925497  0.85120566  0.40161535    -0.34800
C603        C  0.15680056  0.83396431  0.39815269     0.01390
C604        C  0.16985417  0.81607765  0.39733051     0.07420
C605        C  0.19049426  0.82367481  0.40045469    -0.05680
H606        H  0.13960375  0.83451510  0.39584697     0.08090
H607        H  0.20522444  0.81452460  0.39976168     0.09290
Cu608      Cu  0.15971986  0.88280072  0.40303037     0.44170
Cu609      Cu  0.21472447  0.86658348  0.40429501     0.41990
Cu610      Cu  0.20122050  0.92350775  0.40509574     0.43880
N611        N  0.15359066  0.91526959  0.40293555    -0.34330
N612        N  0.16860463  0.93027281  0.40363447    -0.28590
C613        C  0.15915202  0.94963630  0.40230932    -0.04690
C614        C  0.13727090  0.94645082  0.40074834     0.07530
C615        C  0.13424299  0.92459064  0.40120211     0.01330
H616        H  0.16759793  0.96479811  0.40213016     0.08980
H617        H  0.11918197  0.91604223  0.39997382     0.08060
N618        N  0.23234470  0.91175238  0.40309696    -0.35780
N619        N  0.23701793  0.89107335  0.40217980    -0.27960
C620        C  0.25806906  0.88877375  0.39817437    -0.03200
C621        C  0.26712887  0.90891944  0.39687238     0.05410
C622        C  0.25045172  0.92315961  0.40006089     0.03500
H623        H  0.26603476  0.87357470  0.39565087     0.08610
H624        H  0.25117138  0.94045811  0.39892313     0.07440
N625        N  0.47985065  0.84513817  0.10937874    -0.26950
N626        N  0.48123493  0.85056886  0.08895601    -0.34800
C627        C  0.47888211  0.83289969  0.07679873     0.01390
C628        C  0.47572835  0.81547670  0.09028133     0.07420
C629        C  0.47653971  0.82391676  0.11084883    -0.05680
H630        H  0.47842104  0.83298346  0.05945314     0.08090
H631        H  0.47430110  0.81546962  0.12583241     0.09290
Cu632      Cu  0.48378191  0.88210256  0.07897659     0.44170
Cu633      Cu  0.48036604  0.86708541  0.13412396     0.41990
Cu634      Cu  0.48433181  0.92341012  0.12085282     0.43880
N635        N  0.48307803  0.91474664  0.07305258    -0.34330
N636        N  0.48321696  0.92976536  0.08808785    -0.28590
C637        C  0.48146543  0.94909820  0.07862592    -0.04690
C638        C  0.48018710  0.94594044  0.05672858     0.07530
C639        C  0.48126381  0.92408859  0.05369426     0.01330
H640        H  0.48078353  0.96423455  0.08709061     0.08980
H641        H  0.48038122  0.91554710  0.03860646     0.08060
N642        N  0.48159040  0.91196948  0.15208279    -0.35780
N643        N  0.47939665  0.89135865  0.15657703    -0.27960
C644        C  0.47520159  0.88906501  0.17757392    -0.03200
C645        C  0.47505360  0.90914619  0.18685548     0.05410
C646        C  0.47922026  0.92335981  0.17031402     0.03500
H647        H  0.47181835  0.87393725  0.18536699     0.08610
H648        H  0.47914066  0.94068747  0.17120327     0.07440
N649        N  0.43162174  0.70093268  0.06116653    -0.26950
N650        N  0.45189821  0.69501549  0.05927371    -0.34800
C651        C  0.46457790  0.71232130  0.06168714     0.01390
C652        C  0.45158287  0.72983895  0.06547319     0.07420
C653        C  0.43082790  0.72208234  0.06520784    -0.05680
H654        H  0.48193613  0.71193695  0.06197833     0.08090
H655        H  0.41628198  0.73100017  0.06840308     0.09290
Cu656      Cu  0.46126754  0.66330307  0.05689330     0.44170
Cu657      Cu  0.40615108  0.67971969  0.06000708     0.41990
Cu658      Cu  0.41926703  0.62312770  0.06275522     0.43880
N659        N  0.46699758  0.63067654  0.05859991    -0.34330
N660        N  0.45184869  0.61595281  0.06086727    -0.28590
C661        C  0.46117740  0.59650857  0.06212838    -0.04690
C662        C  0.48312873  0.59930897  0.06062906     0.07530
C663        C  0.48630108  0.62106360  0.05841667     0.01330
H664        H  0.45263269  0.58154458  0.06420811     0.08980
H665        H  0.50148934  0.62935563  0.05704250     0.08060
N666        N  0.38809870  0.63507840  0.06387618    -0.35780
N667        N  0.38340637  0.65565933  0.06186630    -0.27960
C668        C  0.36205450  0.65825270  0.06344256    -0.03200
C669        C  0.35284101  0.63839667  0.06694480     0.05410
C670        C  0.36980924  0.62405869  0.06719332     0.03500
H671        H  0.35397889  0.67360033  0.06326519     0.08610
H672        H  0.36896908  0.60695280  0.06994140     0.07440
N673        N  0.38404890  0.92753441  0.35128657    -0.26950
N674        N  0.38950778  0.92986855  0.37164069    -0.34800
C675        C  0.37180161  0.92868388  0.38389497     0.01390
C676        C  0.35426013  0.92534297  0.37062758     0.07420
C677        C  0.36269566  0.92472539  0.35002817    -0.05680
H678        H  0.37188288  0.92951281  0.40122987     0.08090
H679        H  0.35406489  0.92225488  0.33517446     0.09290
Cu680      Cu  0.42084541  0.93318946  0.38194941     0.44170
Cu681      Cu  0.40598238  0.92747291  0.32627442     0.41990
Cu682      Cu  0.46193468  0.93351206  0.34078713     0.43880
N683        N  0.45335413  0.93440598  0.38833985    -0.34330
N684        N  0.46837340  0.93451074  0.37333206    -0.28590
C685        C  0.48777002  0.93462104  0.38278544    -0.04690
C686        C  0.48465522  0.93458807  0.40468300     0.07530
C687        C  0.46276386  0.93445390  0.40775173     0.01330
H688        H  0.50294330  0.93444393  0.37432655     0.08980
H689        H  0.45427593  0.93411553  0.42290685     0.08060
N690        N  0.45131477  0.93022393  0.30951084    -0.35780
N691        N  0.43092628  0.92762632  0.30426195    -0.27960
C692        C  0.42948290  0.92471058  0.28293999    -0.03200
C693        C  0.44996156  0.92560368  0.27430376     0.05410
C694        C  0.46339012  0.92918743  0.29165619     0.03500
H695        H  0.41459344  0.92200816  0.27443403     0.08610
H696        H  0.48071729  0.93021557  0.29148057     0.07440
N697        N  0.14074745  0.70153349  0.35282228    -0.26950
N698        N  0.14313197  0.69489777  0.37281600    -0.34800
C699        C  0.14715258  0.71183040  0.38551796     0.01390
C700        C  0.14708254  0.73005840  0.37293145     0.07420
C701        C  0.14287731  0.72299017  0.35229022    -0.05680
H702        H  0.15026199  0.71086520  0.40257254     0.08090
H703        H  0.14254469  0.73256855  0.33781694     0.09290
Cu704      Cu  0.14203741  0.66314012  0.38180169     0.44170
Cu705      Cu  0.13781897  0.68068414  0.32710303     0.41990
Cu706      Cu  0.14149739  0.62349068  0.33973061     0.43880
N707        N  0.14138030  0.63061774  0.38752888    -0.34330
N708        N  0.14124171  0.61587838  0.37225639    -0.28590
C709        C  0.14135131  0.59633701  0.38147900    -0.04690
C710        C  0.14156323  0.59915289  0.40348920     0.07530
C711        C  0.14156304  0.62097695  0.40680286     0.01330
H712        H  0.14149183  0.58129590  0.37282295     0.08980
H713        H  0.14192158  0.62927823  0.42204466     0.08060
N714        N  0.14235848  0.63603323  0.30878199    -0.35780
N715        N  0.14045216  0.65667041  0.30426511    -0.27960
C716        C  0.14254304  0.65946099  0.28297111    -0.03200
C717        C  0.14611406  0.63966689  0.27356097     0.05410
C718        C  0.14587377  0.62518373  0.29044345     0.03500
H719        H  0.14252591  0.67491545  0.27510014     0.08610
H720        H  0.14845002  0.60805893  0.28957001     0.07440
N721        N  0.63833173  0.84460751  0.11000723    -0.26950
N722        N  0.63867329  0.85033253  0.08960470    -0.34800
C723        C  0.64214781  0.83288755  0.07741981     0.01390
C724        C  0.64416761  0.81522501  0.09079179     0.07420
C725        C  0.64156571  0.82333974  0.11137165    -0.05680
H726        H  0.64366586  0.83325948  0.06014240     0.08090
H727        H  0.64294106  0.81468854  0.12634615     0.09290
Cu728      Cu  0.63673138  0.88183647  0.07938334     0.44170
Cu729      Cu  0.63612637  0.86632054  0.13508464     0.41990
Cu730      Cu  0.63965931  0.92264044  0.12063187     0.43880
N731        N  0.63767930  0.91439023  0.07301861    -0.34330
N732        N  0.63883661  0.92934888  0.08804381    -0.28590
C733        C  0.64014467  0.94870412  0.07857897    -0.04690
C734        C  0.63981069  0.94562807  0.05664450     0.07530
C735        C  0.63824020  0.92378676  0.05360383     0.01330
H736        H  0.64161255  0.96378832  0.08703880     0.08980
H737        H  0.63794022  0.91530162  0.03846382     0.08060
N738        N  0.64099429  0.91141416  0.15192478    -0.35780
N739        N  0.63887361  0.89098251  0.15720047    -0.27960
C740        C  0.64122106  0.88894924  0.17854853    -0.03200
C741        C  0.64530824  0.90902084  0.18709792     0.05410
C742        C  0.64505888  0.92288828  0.16975819     0.03500
H743        H  0.64119085  0.87381479  0.18702694     0.08610
H744        H  0.64805949  0.93997542  0.16999176     0.07440
N745        N  0.93058941  0.84453749  0.40267223    -0.26950
N746        N  0.95083798  0.85000198  0.40589421    -0.34800
C747        C  0.96325756  0.83247235  0.40393109     0.01390
C748        C  0.95013804  0.81529769  0.39897419     0.07420
C749        C  0.92957976  0.82349717  0.39817652    -0.05680
H750        H  0.98061016  0.83253951  0.40450045     0.08090
H751        H  0.91507577  0.81498712  0.39383797     0.09290
Cu752      Cu  0.96077498  0.88152983  0.40871297     0.44170
Cu753      Cu  0.90548265  0.86614015  0.40247361     0.41990
Cu754      Cu  0.91930945  0.92230217  0.40275734     0.43880
N755        N  0.96691741  0.91401942  0.40590313    -0.34330
N756        N  0.95190208  0.92884953  0.40365033    -0.28590
C757        C  0.96137432  0.94805888  0.40097406    -0.04690
C758        C  0.98328408  0.94502262  0.40153379     0.07530
C759        C  0.98632765  0.92337035  0.40467137     0.01330
H760        H  0.95292823  0.96298517  0.39836267     0.08980
H761        H  0.00146824  0.91494024  0.40551747     0.08060
N762        N  0.88812264  0.91106237  0.40019309    -0.35780
N763        N  0.88310761  0.89047381  0.40049497    -0.27960
C764        C  0.86186885  0.88829837  0.39751353    -0.03200
C765        C  0.85305793  0.90850904  0.39498305     0.05410
C766        C  0.87019967  0.92257149  0.39680529     0.03500
H767        H  0.85368059  0.87305916  0.39619247     0.08610
H768        H  0.86981168  0.93984208  0.39531615     0.07440
N769        N  0.93608321  0.62315755  0.15384361    -0.26950
N770        N  0.95565374  0.61613054  0.14977261    -0.34800
C771        C  0.96728288  0.61671714  0.16798077     0.01390
C772        C  0.95439669  0.62455230  0.18436625     0.07420
C773        C  0.93471607  0.62845420  0.17470510    -0.05680
H774        H  0.98391164  0.61188504  0.16910454     0.08090
H775        H  0.92026555  0.63434987  0.18228150     0.09290
Cu776      Cu  0.96516559  0.60586128  0.11958537     0.44170
Cu777      Cu  0.91184992  0.62450231  0.13104376     0.41990
Cu778      Cu  0.92329903  0.60359873  0.07823934     0.43880
N779        N  0.97037473  0.59633980  0.08811661    -0.34330
N780        N  0.95530416  0.59546178  0.07314652    -0.28590
C781        C  0.96434183  0.58942637  0.05446635    -0.04690
C782        C  0.98598834  0.58628909  0.05798222     0.07530
C783        C  0.98933911  0.59087815  0.07937084     0.01330
H784        H  0.95588425  0.58802968  0.03937033     0.08980
H785        H  0.00449379  0.59084671  0.08783796     0.08060
N786        N  0.89304038  0.61426622  0.08754620    -0.35780
N787        N  0.88921050  0.62257619  0.10669117    -0.27960
C788        C  0.86855394  0.62866981  0.10772582    -0.03200
C789        C  0.85874124  0.62380230  0.08838038     0.05410
C790        C  0.87475993  0.61460223  0.07596638     0.03500
H791        H  0.86113820  0.63578120  0.12171945     0.08610
H792        H  0.87334043  0.60891271  0.05961911     0.07440
N793        N  0.68940898  0.70046919  0.06376852    -0.26950
N794        N  0.66924072  0.69391747  0.06410508    -0.34800
C795        C  0.65632546  0.71093199  0.06700916     0.01390
C796        C  0.66901687  0.72905982  0.06820476     0.07420
C797        C  0.68990036  0.72191420  0.06611476    -0.05680
H798        H  0.63906393  0.71009799  0.06867072     0.08090
H799        H  0.70438353  0.73142243  0.06734237     0.09290
Cu800      Cu  0.66062287  0.66198087  0.06192383     0.44170
Cu801      Cu  0.71502288  0.67936644  0.06281814     0.41990
Cu802      Cu  0.70330011  0.62190462  0.06060304     0.43880
N803        N  0.65521658  0.62928027  0.06087238    -0.34330
N804        N  0.67047302  0.61451465  0.06048799    -0.28590
C805        C  0.66112735  0.59497838  0.06062804    -0.04690
C806        C  0.63908895  0.59778936  0.06109623     0.07530
C807        C  0.63591183  0.61963909  0.06122058     0.01330
H808        H  0.66972540  0.57991338  0.06064645     0.08980
H809        H  0.62070584  0.62797365  0.06182320     0.08060
N810        N  0.73430959  0.63475198  0.06290029    -0.35780
N811        N  0.73816977  0.65558711  0.06418724    -0.27960
C812        C  0.75925470  0.65876030  0.06738259    -0.03200
C813        C  0.76937899  0.63904422  0.06797312     0.05410
C814        C  0.75307480  0.62414218  0.06494201     0.03500
H815        H  0.76660908  0.67434242  0.06943598     0.08610
H816        H  0.75459798  0.60686892  0.06520114     0.07440
N817        N  0.97848746  0.70104502  0.35263230    -0.26950
N818        N  0.98038477  0.69528122  0.37291812    -0.34800
C819        C  0.97802034  0.71268557  0.38544981     0.01390
C820        C  0.97429706  0.73026323  0.37234413     0.07420
C821        C  0.97477924  0.72222105  0.35161552    -0.05680
H822        H  0.97797523  0.71232754  0.40280011     0.08090
H823        H  0.97214970  0.73093681  0.33684804     0.09290
Cu824      Cu  0.98377069  0.66360538  0.38208698     0.44170
Cu825      Cu  0.97929296  0.67949401  0.32754968     0.41990
Cu826      Cu  0.98476305  0.62282254  0.33944092     0.43880
N827        N  0.98409742  0.63087801  0.38749451    -0.34330
N828        N  0.98437554  0.61599630  0.37231435    -0.28590
C829        C  0.98356460  0.59653692  0.38172359    -0.04690
C830        C  0.98274965  0.59950179  0.40371238     0.07530
C831        C  0.98311903  0.62135729  0.40682391     0.01330
H832        H  0.98329177  0.58142871  0.37318744     0.08980
H833        H  0.98240408  0.62978127  0.42198446     0.08060
N834        N  0.98200890  0.63511013  0.30834041    -0.35780
N835        N  0.97933515  0.65579109  0.30446692    -0.27960
C836        C  0.97565577  0.65870684  0.28345338    -0.03200
C837        C  0.97628145  0.63899203  0.27341634     0.05410
C838        C  0.98045641  0.62432286  0.28961601     0.03500
H839        H  0.97221512  0.67404194  0.27610797     0.08610
H840        H  0.98104659  0.60705290  0.28809605     0.07440
N841        N  0.68957850  0.93074636  0.30387449    -0.26950
N842        N  0.66932349  0.92874547  0.30991258    -0.34800
C843        C  0.65697762  0.92556259  0.29253971     0.01390
C844        C  0.66999531  0.92581624  0.27462276     0.07420
C845        C  0.69057219  0.92921894  0.28233700    -0.05680
H846        H  0.63977317  0.92318676  0.29296248     0.08090
H847        H  0.70525491  0.92969675  0.27307312     0.09290
Cu848      Cu  0.65885050  0.93010793  0.34125786     0.44170
Cu849      Cu  0.71501450  0.93326173  0.32541671     0.41990
Cu850      Cu  0.69935805  0.93086361  0.38162233     0.43880
N851        N  0.65206046  0.93197687  0.37356426    -0.34330
N852        N  0.66709659  0.93229967  0.38851633    -0.28590
C853        C  0.65777768  0.93321197  0.40793305    -0.04690
C854        C  0.63589097  0.93346165  0.40486813     0.07530
C855        C  0.63268916  0.93267003  0.38300270     0.01330
H856        H  0.66630107  0.93340360  0.42305891     0.08980
H857        H  0.61750923  0.93236370  0.37458277     0.08060
N858        N  0.73063928  0.92943643  0.37110998    -0.35780
N859        N  0.73663606  0.93121930  0.35081861    -0.27960
C860        C  0.75816099  0.92960115  0.34978821    -0.03200
C861        C  0.76584447  0.92636772  0.37037274     0.05410
C862        C  0.74800760  0.92625571  0.38344320     0.03500
H863        H  0.76741414  0.92979620  0.33509091     0.08610
H864        H  0.74763472  0.92385964  0.40064801     0.07440
N865        N  0.92895402  0.44660400  0.15730223    -0.26950
N866        N  0.94944149  0.44997684  0.15291569    -0.34800
C867        C  0.96096038  0.44709052  0.17103288     0.01390
C868        C  0.94700491  0.44128749  0.18741332     0.07420
C869        C  0.92689099  0.44115633  0.17805112    -0.05680
H870        H  0.97827149  0.44810899  0.17197207     0.08090
H871        H  0.91182946  0.43705414  0.18566828     0.09290
Cu872      Cu  0.96039019  0.45591930  0.12172892     0.44170
Cu873      Cu  0.90457732  0.44804392  0.13488323     0.41990
Cu874      Cu  0.91925397  0.45207472  0.07940083     0.43880
N875        N  0.96663439  0.45894547  0.08884804    -0.34330
N876        N  0.95179126  0.45750720  0.07367138    -0.28590
C877        C  0.96127429  0.45947823  0.05433217    -0.04690
C878        C  0.98304279  0.46226371  0.05747153     0.07530
C879        C  0.98593594  0.46182433  0.07947586     0.01330
H880        H  0.95296244  0.45854922  0.03911895     0.08980
H881        H  0.00098115  0.46309525  0.08804097     0.08060
N882        N  0.88783266  0.44693575  0.08967572    -0.35780
N883        N  0.88251593  0.44644928  0.11020287    -0.27960
C884        C  0.86132195  0.44291194  0.11199539    -0.03200
C885        C  0.85282457  0.44075367  0.09160907     0.05410
C886        C  0.87010435  0.44333125  0.07780806     0.03500
H887        H  0.85290582  0.44105734  0.12707747     0.08610
H888        H  0.86984249  0.44249425  0.06046003     0.07440
N889        N  0.88406743  0.15083128  0.39021243    -0.26950
N890        N  0.88974447  0.13067595  0.38692784    -0.34800
C891        C  0.87208087  0.11871242  0.38381340     0.01390
C892        C  0.85436064  0.13191667  0.38541797     0.07420
C893        C  0.86251837  0.15217215  0.38957259    -0.05680
H894        H  0.87218380  0.10170559  0.38036709     0.08090
H895        H  0.85353549  0.16694182  0.39096989     0.09290
Cu896      Cu  0.92112849  0.12029171  0.38598947     0.44170
Cu897      Cu  0.90608723  0.17578466  0.39266158     0.41990
Cu898      Cu  0.96213314  0.16107739  0.38487083     0.43880
N899        N  0.95350676  0.11354707  0.38567451    -0.34330
N900        N  0.96866086  0.12840993  0.38526424    -0.28590
C901        C  0.98796213  0.11872936  0.38532024    -0.04690
C902        C  0.98458971  0.09684528  0.38574216     0.07530
C903        C  0.96266734  0.09404872  0.38599323     0.01330
H904        H  0.00322392  0.12700082  0.38515191     0.08980
H905        H  0.95398760  0.07902376  0.38645910     0.08060
N906        N  0.95111073  0.19251887  0.38566185    -0.35780
N907        N  0.93092388  0.19786264  0.38948473    -0.27960
C908        C  0.92917585  0.21936761  0.38902032    -0.03200
C909        C  0.94914001  0.22797231  0.38440775     0.05410
C910        C  0.96264438  0.21047520  0.38231207     0.03500
H911        H  0.91427758  0.22805119  0.39096298     0.08610
H912        H  0.97958804  0.21075318  0.37853518     0.07440
N913        N  0.65077114  0.15090432  0.15590022    -0.26950
N914        N  0.65180749  0.13054474  0.15015075    -0.34800
C915        C  0.65382025  0.11830939  0.16777074     0.01390
C916        C  0.65382558  0.13163765  0.18551116     0.07420
C917        C  0.65178130  0.15220170  0.17741283    -0.05680
H918        H  0.65539181  0.10103411  0.16762277     0.08090
H919        H  0.65198025  0.16704726  0.18639167     0.09290
Cu920      Cu  0.65108939  0.12057097  0.11863903     0.44170
Cu921      Cu  0.65009102  0.17580231  0.13397834     0.41990
Cu922      Cu  0.64668840  0.16187468  0.07748485     0.43880
N923        N  0.65026250  0.11434958  0.08617303    -0.34330
N924        N  0.64858235  0.12921416  0.07110910    -0.28590
C925        C  0.64884171  0.11960332  0.05176401    -0.04690
C926        C  0.65077384  0.09780139  0.05502058     0.07530
C927        C  0.65158491  0.09494875  0.07689770     0.01330
H928        H  0.64775869  0.12787525  0.03654719     0.08980
H929        H  0.65305417  0.07994334  0.08548326     0.08060
N930        N  0.64865869  0.19319366  0.08874039    -0.35780
N931        N  0.65082129  0.19800590  0.10930796    -0.27960
C932        C  0.65426592  0.21917954  0.11129155    -0.03200
C933        C  0.65392040  0.22822133  0.09105746     0.05410
C934        C  0.65023517  0.21133487  0.07710280     0.03500
H935        H  0.65719564  0.22732992  0.12634029     0.08610
H936        H  0.64992904  0.21200527  0.05975712     0.07440
N937        N  0.73664835  0.39551471  0.06930993    -0.26950
N938        N  0.73017684  0.41562786  0.07084767    -0.34800
C939        C  0.74732358  0.42839966  0.07376770     0.01390
C940        C  0.76551890  0.41573412  0.07371826     0.07420
C941        C  0.75819744  0.39496577  0.07078670    -0.05680
H942        H  0.74658298  0.44560692  0.07585396     0.08090
H943        H  0.76772848  0.38047748  0.07065813     0.09290
Cu944      Cu  0.69832008  0.42458987  0.06900014     0.44170
Cu945      Cu  0.71536853  0.36994752  0.06747590     0.41990
Cu946      Cu  0.65820254  0.38250070  0.06389101     0.43880
N947        N  0.66577109  0.43024240  0.06628531    -0.34330
N948        N  0.65103449  0.41505734  0.06439286    -0.28590
C949        C  0.63153593  0.42431444  0.06342927    -0.04690
C950        C  0.63434467  0.44624815  0.06474507     0.07530
C951        C  0.65612709  0.44950324  0.06651457     0.01330
H952        H  0.61651360  0.41571735  0.06206404     0.08980
H953        H  0.66438428  0.46469191  0.06804550     0.08060
N954        N  0.67033848  0.35154459  0.06630724    -0.35780
N955        N  0.69103237  0.34719164  0.06818514    -0.27960
C956        C  0.69347128  0.32604034  0.07148693    -0.03200
C957        C  0.67340131  0.31651868  0.07148477     0.05410
C958        C  0.65909707  0.33316054  0.06804345     0.03500
H959        H  0.70875651  0.31823470  0.07402197     0.08610
H960        H  0.64176615  0.33214881  0.06784902     0.07440
N961        N  0.68911157  0.10448279  0.30346159    -0.26950
N962        N  0.66894345  0.10801210  0.30899905    -0.34800
C963        C  0.65729101  0.11180842  0.29126102     0.01390
C964        C  0.67074585  0.11035076  0.27369657     0.07420
C965        C  0.69078224  0.10561305  0.28198418    -0.05680
H966        H  0.64036229  0.11569419  0.29121432     0.08090
H967        H  0.70568495  0.10426698  0.27317078     0.09290
Cu968      Cu  0.65832409  0.10848549  0.34034905     0.44170
Cu969      Cu  0.71388728  0.10148139  0.32541724     0.41990
Cu970      Cu  0.69933214  0.10808592  0.38130489     0.43880
N971        N  0.65181523  0.10836194  0.37280751    -0.34330
N972        N  0.66680180  0.10820247  0.38784327    -0.28590
C973        C  0.65732945  0.10836740  0.40722948    -0.04690
C974        C  0.63543808  0.10865345  0.40406328     0.07530
C975        C  0.63239236  0.10862383  0.38216969     0.01330
H976        H  0.66575982  0.10840126  0.42240601     0.08980
H977        H  0.61726583  0.10889401  0.37365396     0.08060
N978        N  0.73064550  0.10796976  0.37032095    -0.35780
N979        N  0.73599390  0.10479460  0.35003608    -0.27960
C980        C  0.75742679  0.10630765  0.34811538    -0.03200
C981        C  0.76595254  0.11087549  0.36812173     0.05410
C982        C  0.74849755  0.11182552  0.38181461     0.03500
H983        H  0.76603376  0.10524663  0.33306972     0.08610
H984        H  0.74867935  0.11538919  0.39881358     0.07440
N985        N  0.96946728  0.39598217  0.30394840    -0.26950
N986        N  0.97259424  0.41621384  0.30948186    -0.34800
C987        C  0.97103366  0.42863209  0.29186023     0.01390
C988        C  0.96636047  0.41558954  0.27446605     0.07420
C989        C  0.96543480  0.39500754  0.28276079    -0.05680
H990        H  0.97220984  0.44594015  0.29188721     0.08090
H991        H  0.96189264  0.38040539  0.27407706     0.09290
Cu992      Cu  0.97626102  0.42591721  0.34117559     0.44170
Cu993      Cu  0.97009198  0.37069342  0.32561297     0.41990
Cu994      Cu  0.97121825  0.38422698  0.38214127     0.43880
N995        N  0.97611588  0.43185883  0.37399442    -0.34330
N996        N  0.97415583  0.41684249  0.38889581    -0.28590
C997        C  0.97403865  0.42626669  0.40836603    -0.04690
C998        C  0.97596782  0.44814900  0.40546041     0.07530
C999        C  0.97724348  0.45117804  0.38357132     0.01330
H1000       H  0.97246982  0.41782441  0.42345080     0.08980
H1001       H  0.97865068  0.46629730  0.37517836     0.08060
N1002       N  0.96904077  0.35290306  0.37066242    -0.35780
N1003       N  0.96950675  0.34802660  0.35000509    -0.27960
C1004       C  0.96808227  0.32661471  0.34776169    -0.03200
C1005       C  0.96631102  0.31752982  0.36794920     0.05410
C1006       C  0.96690763  0.33468967  0.38209739     0.03500
H1007       H  0.96749134  0.31834751  0.33250406     0.08610
H1008       H  0.96580047  0.33400312  0.39941104     0.07440
N1009       N  0.23582943  0.44577522  0.10999046    -0.26950
N1010       N  0.23112740  0.44792607  0.08944794    -0.34800
C1011       C  0.24914415  0.44487548  0.07786271     0.01390
C1012       C  0.26600111  0.44050816  0.09187316     0.07420
C1013       C  0.25677951  0.44131892  0.11211244    -0.05680
H1014       H  0.24970868  0.44522504  0.06052505     0.08090
H1015       H  0.26446853  0.43846697  0.12739172     0.09290
Cu1016     Cu  0.19986452  0.45362046  0.07890940     0.44170
Cu1017     Cu  0.21347337  0.44717838  0.13433125     0.41990
Cu1018     Cu  0.15793751  0.45404076  0.12109950     0.43880
N1019       N  0.16713320  0.45799096  0.07324497    -0.34330
N1020       N  0.15212150  0.45813292  0.08832743    -0.28590
C1021       C  0.13279722  0.46061179  0.07893405    -0.04690
C1022       C  0.13582006  0.46211895  0.05702401     0.07530
C1023       C  0.15769411  0.46038354  0.05393398     0.01330
H1024       H  0.11764589  0.46089106  0.08742396     0.08980
H1025       H  0.16612757  0.46044410  0.03874743     0.08060
N1026       N  0.16869447  0.44836433  0.15232348    -0.35780
N1027       N  0.18925331  0.44587744  0.15682785    -0.27960
C1028       C  0.19149283  0.44121644  0.17772837    -0.03200
C1029       C  0.17134716  0.44069157  0.18708615     0.05410
C1030       C  0.15723204  0.44543137  0.17045755     0.03500
H1031       H  0.20674910  0.43811901  0.18538459     0.08610
H1032       H  0.13990593  0.44591282  0.17127163     0.07440
N1033       N  0.46688270  0.15063655  0.15490024    -0.26950
N1034       N  0.46516371  0.13032801  0.14909588    -0.34800
C1035       C  0.46307488  0.11807419  0.16669935     0.01390
C1036       C  0.46389833  0.13132633  0.18443694     0.07420
C1037       C  0.46636755  0.15185904  0.17644221    -0.05680
H1038       H  0.46088193  0.10086036  0.16656935     0.08090
H1039       H  0.46671120  0.16663681  0.18553127     0.09290
Cu1040     Cu  0.46539929  0.12045315  0.11755685     0.44170
Cu1041     Cu  0.46750732  0.17559293  0.13300464     0.41990
Cu1042     Cu  0.46987211  0.16180095  0.07640557     0.43880
N1043       N  0.46648385  0.11424749  0.08510530    -0.34330
N1044       N  0.46818480  0.12911576  0.07004351    -0.28590
C1045       C  0.46818572  0.11948109  0.05070815    -0.04690
C1046       C  0.46640630  0.09766377  0.05397301     0.07530
C1047       C  0.46541930  0.09482466  0.07584175     0.01330
H1048       H  0.46936193  0.12774522  0.03549256     0.08980
H1049       H  0.46402110  0.07981106  0.08443158     0.08060
N1050       N  0.46807102  0.19310271  0.08775330    -0.35780
N1051       N  0.46634443  0.19786069  0.10837228    -0.27960
C1052       C  0.46313544  0.21905202  0.11047888    -0.03200
C1053       C  0.46315028  0.22818259  0.09026516     0.05410
C1054       C  0.46642550  0.21129555  0.07620046     0.03500
H1055       H  0.46068966  0.22717488  0.12562682     0.08610
H1056       H  0.46651365  0.21202090  0.05885314     0.07440
N1057       N  0.23426946  0.15092806  0.38585063    -0.26950
N1058       N  0.22923197  0.13045395  0.38774467    -0.34800
C1059       C  0.24728414  0.11866829  0.38693512     0.01390
C1060       C  0.26454565  0.13246577  0.38428219     0.07420
C1061       C  0.25562154  0.15280431  0.38371084    -0.05680
H1062       H  0.24766723  0.10134905  0.38744382     0.08090
H1063       H  0.26390703  0.16788783  0.38166266     0.09290
Cu1064     Cu  0.19785025  0.11996496  0.38976602     0.44170
Cu1065     Cu  0.21184313  0.17528429  0.38536958     0.41990
Cu1066     Cu  0.15599323  0.16162640  0.39110061     0.43880
N1067       N  0.16524523  0.11391751  0.38956058    -0.34330
N1068       N  0.15010642  0.12880808  0.39006595    -0.28590
C1069       C  0.13079605  0.11915835  0.38921988    -0.04690
C1070       C  0.13410716  0.09732023  0.38810870     0.07530
C1071       C  0.15600217  0.09447246  0.38839478     0.01330
H1072       H  0.11555052  0.12744192  0.38933571     0.08980
H1073       H  0.16462544  0.07943297  0.38774489     0.08060
N1074       N  0.16695418  0.19302708  0.38856473    -0.35780
N1075       N  0.18744418  0.19768280  0.38562294    -0.27960
C1076       C  0.18953129  0.21885724  0.38239846    -0.03200
C1077       C  0.16943286  0.22811692  0.38360312     0.05410
C1078       C  0.15544078  0.21130384  0.38763969     0.03500
H1079       H  0.20457391  0.22687809  0.37910037     0.08610
H1080       H  0.13813481  0.21214150  0.38872217     0.07440
N1081       N  0.38261772  0.10622420  0.34987658    -0.26950
N1082       N  0.38751565  0.10456976  0.37045301    -0.34800
C1083       C  0.36942268  0.10643777  0.38212789     0.01390
C1084       C  0.35251835  0.10962118  0.36810563     0.07420
C1085       C  0.36144585  0.10953696  0.34785984    -0.05680
H1086       H  0.36882632  0.10683176  0.39947613     0.08090
H1087       H  0.35327924  0.11243113  0.33280828     0.09290
Cu1088     Cu  0.41894209  0.10308095  0.38129699     0.44170
Cu1089     Cu  0.40482268  0.10576110  0.32539456     0.41990
Cu1090     Cu  0.46045609  0.10715887  0.33968469     0.43880
N1091       N  0.45162891  0.10489129  0.38737682    -0.34330
N1092       N  0.46657969  0.10638939  0.37234290    -0.28590
C1093       C  0.48594505  0.10776509  0.38177155    -0.04690
C1094       C  0.48294141  0.10715101  0.40366920     0.07530
C1095       C  0.46111209  0.10532443  0.40676859     0.01330
H1096       H  0.50103006  0.10925909  0.37328366     0.08980
H1097       H  0.45270023  0.10452794  0.42194720     0.08060
N1098       N  0.44973255  0.10830289  0.30826228    -0.35780
N1099       N  0.42919796  0.10725003  0.30312223    -0.27960
C1100       C  0.42712979  0.10886490  0.28174456    -0.03200
C1101       C  0.44736712  0.11124678  0.27294309     0.05410
C1102       C  0.46134537  0.11084806  0.29024393     0.03500
H1103       H  0.41192487  0.10924027  0.27337322     0.08610
H1104       H  0.47861489  0.11256218  0.28984141     0.07440
N1105       N  0.15045629  0.39666214  0.30400138    -0.26950
N1106       N  0.14609466  0.41667251  0.30943668    -0.34800
C1107       C  0.14677256  0.42905467  0.29173014     0.01390
C1108       C  0.15209921  0.41616440  0.27444280     0.07420
C1109       C  0.15441849  0.39577510  0.28281964    -0.05680
H1110       H  0.14466696  0.44627275  0.29163433     0.08090
H1111       H  0.15896643  0.38141250  0.27420987     0.09290
Cu1112     Cu  0.14216041  0.42596258  0.34118748     0.44170
Cu1113     Cu  0.15125610  0.37166400  0.32579971     0.41990
Cu1114     Cu  0.14364923  0.38346986  0.38216305     0.43880
N1115       N  0.14224058  0.43142792  0.37406979    -0.34330
N1116       N  0.14282912  0.41623394  0.38891856    -0.28590
C1117       C  0.14344920  0.42555751  0.40843142    -0.04690
C1118       C  0.14325683  0.44753111  0.40559681     0.07530
C1119       C  0.14249133  0.45073013  0.38372328     0.01330
H1120       H  0.14419247  0.41697223  0.42349708     0.08980
H1121       H  0.14234892  0.46594311  0.37538651     0.08060
N1122       N  0.14695441  0.35244352  0.37011339    -0.35780
N1123       N  0.15025568  0.34849184  0.34952562    -0.27960
C1124       C  0.15329844  0.32736914  0.34674556    -0.03200
C1125       C  0.15176683  0.31736182  0.36649237     0.05410
C1126       C  0.14760806  0.33374864  0.38098254     0.03500
H1127       H  0.15665656  0.31990444  0.33143572     0.08610
H1128       H  0.14611801  0.33231866  0.39822201     0.07440
N1129       N  0.38252333  0.39622556  0.07005077    -0.26950
N1130       N  0.38825832  0.41635455  0.06668936    -0.34800
C1131       C  0.37071317  0.42890880  0.06764042     0.01390
C1132       C  0.35318423  0.41598162  0.07188489     0.07420
C1133       C  0.36123534  0.39540819  0.07349301    -0.05680
H1134       H  0.37085981  0.44620574  0.06634206     0.08090
H1135       H  0.35236644  0.38099667  0.07734652     0.09290
Cu1136     Cu  0.42004766  0.42555565  0.06326730     0.44170
Cu1137     Cu  0.40418900  0.37108096  0.07054402     0.41990
Cu1138     Cu  0.46075683  0.38310641  0.06313945     0.43880
N1139       N  0.45286680  0.43105185  0.06282144    -0.34330
N1140       N  0.46769381  0.41584380  0.06278123    -0.28590
C1141       C  0.48722493  0.42515136  0.06314830    -0.04690
C1142       C  0.48439926  0.44712905  0.06344303     0.07530
C1143       C  0.46252875  0.45034360  0.06322157     0.01330
H1144       H  0.50229580  0.41655363  0.06339242     0.08980
H1145       H  0.45420171  0.46555649  0.06353796     0.08060
N1146       N  0.44865415  0.35208730  0.06642929    -0.35780
N1147       N  0.42808142  0.34804609  0.06977202    -0.27960
C1148       C  0.42543614  0.32693633  0.07309952    -0.03200
C1149       C  0.44523587  0.31705548  0.07164343     0.05410
C1150       C  0.45962226  0.33346996  0.06727335     0.03500
H1151       H  0.41020279  0.31939190  0.07664112     0.08610
H1152       H  0.47687275  0.33212804  0.06585216     0.07440
O1153       O  0.58341930  0.54599493  0.04532121    -0.72600
O1154       O  0.53712346  0.50102459  0.04624330    -0.73580
O1155       O  0.53757954  0.54655728  0.04522658    -0.62200
O1156       O  0.58249531  0.50050325  0.04635036    -0.70610
O1157       O  0.58245914  0.50127353  0.08203260    -0.70160
O1158       O  0.53746354  0.54740549  0.08089467    -0.61420
O1159       O  0.53699431  0.50177447  0.08191459    -0.73930
O1160       O  0.58340387  0.54685686  0.08097917    -0.72700
Cu1161     Cu  0.56015139  0.52355524  0.04454512     1.04560
Cu1162     Cu  0.56007316  0.52442190  0.08272680     1.04330
C1163       C  0.59088427  0.55324333  0.06298484     0.93600
C1164       C  0.53000556  0.49418477  0.06419310     0.92740
C1165       C  0.53029671  0.55400249  0.06286614     0.84880
C1166       C  0.58933522  0.49354652  0.06435001     0.91150
O1167       O  0.16204195  0.50205671  0.45816665    -0.72600
O1168       O  0.16157212  0.54765017  0.50407262    -0.73580
O1169       O  0.16229716  0.50201299  0.50365731    -0.62200
O1170       O  0.16130764  0.54763716  0.45815878    -0.70610
O1171       O  0.12563357  0.54701205  0.45840102    -0.70160
O1172       O  0.12661254  0.50149498  0.50379299    -0.61420
O1173       O  0.12591515  0.54703377  0.50422202    -0.73930
O1174       O  0.12637220  0.50152299  0.45840057    -0.72700
Cu1175     Cu  0.16307670  0.52492073  0.48101356     1.04560
Cu1176     Cu  0.12489251  0.52430288  0.48121791     1.04330
C1177       C  0.14425543  0.49454598  0.45125650     0.93600
C1178       C  0.14365724  0.55430218  0.51149377     0.92740
C1179       C  0.14457357  0.49447158  0.51064415     0.84880
C1180       C  0.14329789  0.55423338  0.45096197     0.91150
O1181       O  0.58184707  0.12757114  0.50225864    -0.72600
O1182       O  0.53625684  0.12721915  0.45672131    -0.73580
O1183       O  0.53628358  0.12735202  0.50222973    -0.62200
O1184       O  0.58179619  0.12744477  0.45678288    -0.70610
O1185       O  0.58190473  0.09177226  0.45691493    -0.70160
O1186       O  0.53649936  0.09168137  0.50225616    -0.61420
O1187       O  0.53646921  0.09155465  0.45686038    -0.73930
O1188       O  0.58195374  0.09190632  0.50229350    -0.72700
Cu1189     Cu  0.55903750  0.12867874  0.47949621     1.04560
Cu1190     Cu  0.55920693  0.09048141  0.47958571     1.04330
C1191       C  0.58905749  0.10977075  0.50933512     0.93600
C1192       C  0.52924018  0.10929987  0.44970010     0.92740
C1193       C  0.52927140  0.10946784  0.50930923     0.84880
C1194       C  0.58898133  0.10960172  0.44979860     0.91150
O1195       O  0.99499171  0.50155961  0.45847339    -0.72600
O1196       O  0.99660754  0.54665071  0.50476027    -0.73580
O1197       O  0.99485370  0.50113350  0.50391990    -0.62200
O1198       O  0.99681211  0.54706257  0.45883657    -0.70610
O1199       O  0.96117287  0.54848073  0.45862754    -0.70160
O1200       O  0.95919747  0.50243685  0.50383750    -0.61420
O1201       O  0.96097703  0.54803243  0.50463914    -0.73930
O1202       O  0.95934770  0.50289362  0.45831266    -0.72700
Cu1203     Cu  0.99705665  0.52411901  0.48150580     1.04560
Cu1204     Cu  0.95890804  0.52557534  0.48135471     1.04330
C1205       C  0.97692662  0.49504364  0.45129928     0.93600
C1206       C  0.97904405  0.55417687  0.51216635     0.92740
C1207       C  0.97674343  0.49445229  0.51076296     0.84880
C1208       C  0.97932703  0.55472188  0.45142392     0.91150
O1209       O  0.58306159  0.95203387  0.50347231    -0.72600
O1210       O  0.53770979  0.95172595  0.45801882    -0.73580
O1211       O  0.53773923  0.95210174  0.50340567    -0.62200
O1212       O  0.58304809  0.95166434  0.45808460    -0.70610
O1213       O  0.58297629  0.91598428  0.45834714    -0.70160
O1214       O  0.53758704  0.91642293  0.50374981    -0.61420
O1215       O  0.53756135  0.91605357  0.45827147    -0.73930
O1216       O  0.58299897  0.91636188  0.50381182    -0.72700
Cu1217     Cu  0.56039167  0.95313507  0.48073421     1.04560
Cu1218     Cu  0.56027776  0.91492273  0.48105254     1.04330
C1219       C  0.59008907  0.93426950  0.51077238     0.93600
C1220       C  0.53056942  0.93386412  0.45102137     0.92740
C1221       C  0.53061749  0.93436226  0.51068875     0.84880
C1222       C  0.59007188  0.93376772  0.45111970     0.91150
O1223       O  0.53773105  0.50352482  0.87979652    -0.72600
O1224       O  0.58417128  0.54852182  0.88153791    -0.73580
O1225       O  0.58318641  0.50294531  0.87991948    -0.62200
O1226       O  0.53820514  0.54917133  0.88142491    -0.70610
O1227       O  0.53815337  0.54788498  0.91707419    -0.70160
O1228       O  0.58303706  0.50175606  0.91558572    -0.61420
O1229       O  0.58403637  0.54725206  0.91718097    -0.73930
O1230       O  0.53765872  0.50231672  0.91545276    -0.72700
Cu1231     Cu  0.56081946  0.52615574  0.87940295     1.04560
Cu1232     Cu  0.56070999  0.52482888  0.91756493     1.04330
C1233       C  0.53066221  0.49568470  0.89736506     0.93600
C1234       C  0.59160410  0.55467412  0.89963909     0.92740
C1235       C  0.58995291  0.49498344  0.89754011     0.84880
C1236       C  0.53095373  0.55556354  0.89950201     0.91150
O1237       O  0.08268337  0.99598726  0.37616020    -0.72600
O1238       O  0.03671033  0.04084161  0.37149840    -0.73580
O1239       O  0.08217158  0.04125954  0.37159631    -0.62200
O1240       O  0.03698052  0.99549939  0.37609814    -0.70610
O1241       O  0.03698363  0.99916619  0.41160510    -0.70160
O1242       O  0.08196528  0.04471524  0.40712995    -0.61420
O1243       O  0.03666947  0.04434412  0.40702306    -0.73930
O1244       O  0.08251123  0.99961795  0.41166941    -0.72700
Cu1245     Cu  0.05962910  0.01822747  0.37255721     1.04560
Cu1246     Cu  0.05951971  0.02204796  0.41059062     1.04330
C1247       C  0.08990871  0.99095391  0.39466027     0.93600
C1248       C  0.02965973  0.04972825  0.38855651     0.92740
C1249       C  0.08902522  0.05019485  0.38871893     0.84880
C1250       C  0.02985620  0.99028255  0.39459005     0.91150
O1251       O  0.03757129  0.04547452  0.55238061    -0.72600
O1252       O  0.08304321  0.00027523  0.54824647    -0.73580
O1253       O  0.03755276  0.00027005  0.54838811    -0.62200
O1254       O  0.08291654  0.04551132  0.55225332    -0.70610
O1255       O  0.08312171  0.04253342  0.58782674    -0.70160
O1256       O  0.03760536  0.99713789  0.58394744    -0.61420
O1257       O  0.08325643  0.99712178  0.58379241    -0.73930
O1258       O  0.03759321  0.04251155  0.58794635    -0.72700
Cu1259     Cu  0.06027338  0.02297039  0.54908483     1.04560
Cu1260     Cu  0.06040390  0.01968918  0.58716220     1.04330
C1261       C  0.03051946  0.05112588  0.57075395     0.93600
C1262       C  0.09030807  0.99166205  0.56533614     0.92740
C1263       C  0.03040762  0.99170431  0.56554659     0.84880
C1264       C  0.09002691  0.05118762  0.57059555     0.91150
O1265       O  0.48691162  0.04489761  0.95709963    -0.72600
O1266       O  0.49101611  0.99972497  0.00260621    -0.73580
O1267       O  0.49145914  0.99971677  0.95707592    -0.62200
O1268       O  0.48648761  0.04487494  0.00234814    -0.70610
O1269       O  0.45095542  0.04141272  0.00209723    -0.70160
O1270       O  0.45595810  0.99603987  0.95661150    -0.61420
O1271       O  0.45551790  0.99606532  0.00234918    -0.73930
O1272       O  0.45139117  0.04142733  0.95665450    -0.72700
Cu1273     Cu  0.49019684  0.02238584  0.97979037     1.04560
Cu1274     Cu  0.45217102  0.01856156  0.97941172     1.04330
C1275       C  0.46854852  0.05039236  0.94991888     0.93600
C1276       C  0.47394009  0.99093940  0.00971933     0.92740
C1277       C  0.47453177  0.99089845  0.94966299     0.84880
C1278       C  0.46799117  0.05034702  0.00916504     0.91150
O1279       O  0.03645420  0.48263005  0.00356970    -0.72600
O1280       O  0.08228343  0.48253253  0.95757052    -0.73580
O1281       O  0.03640469  0.48261669  0.95766421    -0.62200
O1282       O  0.08231535  0.48256579  0.00345223    -0.70610
O1283       O  0.08215936  0.44693585  0.00339333    -0.70160
O1284       O  0.03638888  0.44698616  0.95774614    -0.61420
O1285       O  0.08212078  0.44690856  0.95765297    -0.73930
O1286       O  0.03643705  0.44700655  0.00350609    -0.72700
Cu1287     Cu  0.05936368  0.48385346  0.98055953     1.04560
Cu1288     Cu  0.05926898  0.44573344  0.98056980     1.04330
C1289       C  0.02931671  0.46479603  0.01075424     0.93600
C1290       C  0.08937580  0.46466662  0.95044332     0.92740
C1291       C  0.02923477  0.46476966  0.95054855     0.84880
C1292       C  0.08939957  0.46471041  0.01058208     0.91150
O1293       O  0.66702133  0.04235380  0.95753247    -0.72600
O1294       O  0.66311255  0.99658584  0.00274898    -0.73580
O1295       O  0.66292245  0.99700821  0.95702861    -0.62200
O1296       O  0.66717233  0.04198761  0.00297485    -0.70610
O1297       O  0.63160456  0.04498753  0.00302495    -0.70160
O1298       O  0.62737889  0.00021177  0.95728058    -0.61420
O1299       O  0.62757211  0.99975001  0.00283972    -0.73930
O1300       O  0.63146409  0.04539848  0.95774560    -0.72700
Cu1301     Cu  0.66633872  0.01932670  0.98007314     1.04560
Cu1302     Cu  0.62826999  0.02265568  0.98023547     1.04330
C1303       C  0.64982123  0.05111745  0.95069807     0.93600
C1304       C  0.64471749  0.99111706  0.00994560     0.92740
C1305       C  0.64445677  0.99174205  0.94985585     0.84880
C1306       C  0.64999894  0.05064589  0.01000442     0.91150
O1307       O  0.08520315  0.59865268  0.96078353    -0.72600
O1308       O  0.03981746  0.59740522  0.00606652    -0.73580
O1309       O  0.08515838  0.59728299  0.00609191    -0.62200
O1310       O  0.03987969  0.59872845  0.96075772    -0.70610
O1311       O  0.03960481  0.56309233  0.95949625    -0.70160
O1312       O  0.08531906  0.56163145  0.00526386    -0.61420
O1313       O  0.03951441  0.56176068  0.00523779    -0.73930
O1314       O  0.08537484  0.56302120  0.95947951    -0.72700
Cu1315     Cu  0.06252988  0.59921163  0.98347051     1.04560
Cu1316     Cu  0.06245818  0.56105206  0.98233842     1.04330
C1317       C  0.09237104  0.58116426  0.95297866     0.93600
C1318       C  0.03248517  0.57950300  0.01271574     0.92740
C1319       C  0.09234408  0.57935782  0.01279227     0.84880
C1320       C  0.03262721  0.58122957  0.95301655     0.91150
C1321       C  0.50071628  0.46346830  0.06409261    -0.12930
C1322       C  0.51404740  0.47752648  0.06438081    -0.14490
C1323       C  0.14395994  0.46386322  0.42192484    -0.12930
C1324       C  0.14430479  0.47787581  0.43530402    -0.14490
C1325       C  0.49921733  0.10832032  0.41990300    -0.12930
C1326       C  0.51293168  0.10902451  0.43350320    -0.14490
C1327       C  0.10485305  0.06677420  0.38739282    -0.12930
C1328       C  0.11811229  0.08081587  0.38731709    -0.14490
C1329       C  0.30127571  0.14119276  0.37075717    -0.13000
C1330       C  0.28735761  0.12675406  0.38108290     0.09150
C1331       C  0.29534982  0.10675319  0.38781097    -0.13000
C1332       C  0.31684120  0.10132600  0.38419289    -0.13000
C1333       C  0.33041710  0.11563399  0.37341291     0.09150
C1334       C  0.32254978  0.13557261  0.36676469    -0.13000
H1335       H  0.29564224  0.15662507  0.36519647     0.13130
H1336       H  0.28505083  0.09534853  0.39590486     0.13130
H1337       H  0.32273185  0.08580233  0.38930416     0.13130
H1338       H  0.33289570  0.14676982  0.35839816     0.13130
C1339       C  0.14924682  0.26195998  0.39177038    -0.13000
C1340       C  0.16421639  0.25075769  0.37920114     0.09150
C1341       C  0.17476514  0.26146929  0.36246079    -0.13000
C1342       C  0.17040222  0.28298425  0.35823145    -0.13000
C1343       C  0.15579515  0.29442424  0.37100936     0.09150
C1344       C  0.14531113  0.28377438  0.38791535    -0.13000
H1345       H  0.14100740  0.25397379  0.40482727     0.13130
H1346       H  0.18629376  0.25311419  0.35249155     0.13130
H1347       H  0.17884303  0.29079129  0.34520748     0.13130
H1348       H  0.13391552  0.29223685  0.39793395     0.13130
C1349       C  0.46645397  0.06698379  0.02488955    -0.12930
C1350       C  0.46609686  0.08112872  0.03801752    -0.14490
C1351       C  0.46617060  0.28332439  0.06481169    -0.13000
C1352       C  0.44995550  0.29424835  0.07603478     0.09150
C1353       C  0.43808360  0.28321877  0.09169153    -0.13000
C1354       C  0.44255952  0.26179915  0.09634780    -0.13000
C1355       C  0.45857481  0.25078763  0.08501618     0.09150
C1356       C  0.47020503  0.26160549  0.06902417    -0.13000
H1357       H  0.47546755  0.29149255  0.05260887     0.13130
H1358       H  0.42559427  0.29129295  0.10067045     0.13130
H1359       H  0.43330783  0.25373758  0.10866191     0.13130
H1360       H  0.48268064  0.25338524  0.06014846     0.13130
C1361       C  0.43873898  0.10764260  0.23398145    -0.13000
C1362       C  0.45247633  0.11525196  0.25017448     0.09150
C1363       C  0.47052977  0.12750666  0.24446656    -0.13000
C1364       C  0.47431361  0.13272348  0.22298337    -0.13000
C1365       C  0.46047349  0.12521073  0.20691388     0.09150
C1366       C  0.44287507  0.11235724  0.21247920    -0.13000
H1367       H  0.42479132  0.09805505  0.23793382     0.13130
H1368       H  0.48129566  0.13367432  0.25663557     0.13130
H1369       H  0.48801044  0.14261996  0.21888720     0.13130
H1370       H  0.43198532  0.10651334  0.20023907     0.13130
C1371       C  0.11946482  0.46373547  0.04068857    -0.12930
C1372       C  0.10575735  0.46452542  0.02695537    -0.14490
C1373       C  0.18116633  0.42307517  0.22185369    -0.13000
C1374       C  0.16626461  0.43480229  0.20960902     0.09150
C1375       C  0.14660726  0.44061053  0.21907383    -0.13000
C1376       C  0.14208480  0.43495165  0.24038495    -0.13000
C1377       C  0.15690354  0.42292983  0.25231409     0.09150
C1378       C  0.17641795  0.41700627  0.24288575    -0.13000
H1379       H  0.19637010  0.41814427  0.21509681     0.13130
H1380       H  0.13483943  0.44970450  0.21011212     0.13130
H1381       H  0.12688691  0.43958452  0.24742570     0.13130
H1382       H  0.18808368  0.40778578  0.25189065     0.13130
C1383       C  0.30268324  0.42777486  0.10283929    -0.13000
C1384       C  0.28861420  0.43485754  0.08661152     0.09150
C1385       C  0.29634381  0.43608745  0.06539903    -0.13000
C1386       C  0.31753123  0.43028170  0.06058853    -0.13000
C1387       C  0.33120524  0.42289829  0.07683282     0.09150
C1388       C  0.32368783  0.42171511  0.09794783    -0.13000
H1389       H  0.29751457  0.42652802  0.11934280     0.13130
H1390       H  0.28609957  0.44151254  0.05248505     0.13130
H1391       H  0.32315264  0.43122159  0.04416451     0.13130
H1392       H  0.33411803  0.41608738  0.11067300     0.13130
C1393       C  0.97615558  0.46454484  0.42175514    -0.12930
C1394       C  0.97640212  0.47850263  0.43520374    -0.14490
C1395       C  0.61912206  0.10918302  0.42021977    -0.12930
C1396       C  0.60533663  0.10953177  0.43371753    -0.14490
C1397       C  0.60491224  0.47665789  0.06466708    -0.12930
C1398       C  0.61807703  0.46252260  0.06471336    -0.14490
C1399       C  0.65126189  0.06719731  0.02585268    -0.12930
C1400       C  0.65138110  0.08129417  0.03904064    -0.14490
C1401       C  0.67079751  0.10826686  0.21318670    -0.13000
C1402       C  0.65721806  0.12547767  0.20806797     0.09150
C1403       C  0.64748694  0.13718018  0.22465962    -0.13000
C1404       C  0.65134215  0.13179086  0.24607283    -0.13000
C1405       C  0.66547082  0.11503127  0.25117090     0.09150
C1406       C  0.67514175  0.10328596  0.23459658    -0.13000
H1407       H  0.67858734  0.09910054  0.20064682     0.13130
H1408       H  0.63688377  0.15045476  0.22105449     0.13130
H1409       H  0.64382066  0.14114115  0.25864604     0.13130
H1410       H  0.68603512  0.09025295  0.23822746     0.13130
C1411       C  0.64613238  0.26209233  0.07100240    -0.13000
C1412       C  0.65889680  0.25065879  0.08559872     0.09150
C1413       C  0.67645578  0.26086846  0.09530506    -0.13000
C1414       C  0.68134754  0.28215167  0.09036860    -0.13000
C1415       C  0.66838061  0.29381573  0.07611241     0.09150
C1416       C  0.65062903  0.28366455  0.06656380    -0.13000
H1417       H  0.63246663  0.25446575  0.06341987     0.13130
H1418       H  0.68654723  0.25227385  0.10654784     0.13130
H1419       H  0.69501822  0.28962430  0.09807402     0.13130
H1420       H  0.64044057  0.29232153  0.05546839     0.13130
C1421       C  0.01375077  0.06622007  0.38701555    -0.12930
C1422       C  0.00053506  0.08027738  0.38624064    -0.14490
C1423       C  0.96873708  0.25689995  0.36463129    -0.13000
C1424       C  0.95441957  0.25082910  0.38094275     0.09150
C1425       C  0.94466731  0.26679851  0.39348437    -0.13000
C1426       C  0.94912940  0.28848801  0.38975787    -0.13000
C1427       C  0.96288112  0.29459234  0.37297400     0.09150
C1428       C  0.97266964  0.27860668  0.36046207    -0.13000
H1429       H  0.97636715  0.24487460  0.35467396     0.13130
H1430       H  0.93363823  0.26248245  0.40620717     0.13130
H1431       H  0.94129064  0.30051071  0.39954554     0.13130
H1432       H  0.98339374  0.28291586  0.34747938     0.13130
C1433       C  0.81526597  0.13584655  0.39329998    -0.13000
C1434       C  0.83177658  0.12598768  0.38160868     0.09150
C1435       C  0.82656349  0.11068365  0.36591090    -0.13000
C1436       C  0.80513245  0.10573390  0.36156377    -0.13000
C1437       C  0.78859175  0.11558720  0.37323894     0.09150
C1438       C  0.79383913  0.13046561  0.38935228    -0.13000
H1439       H  0.81895493  0.14761433  0.40554603     0.13130
H1440       H  0.83904402  0.10295959  0.35660366     0.13130
H1441       H  0.80149167  0.09414181  0.34913653     0.13130
H1442       H  0.78136241  0.13839257  0.39848477     0.13130
C1443       C  0.99942541  0.46387374  0.04111275    -0.12930
C1444       C  0.01305588  0.46464759  0.02727388    -0.14490
C1445       C  0.94053657  0.41829965  0.21959329    -0.13000
C1446       C  0.95228880  0.43476330  0.20963568     0.09150
C1447       C  0.96881189  0.44492522  0.22114148    -0.13000
C1448       C  0.97321659  0.43896053  0.24239638    -0.13000
C1449       C  0.96164370  0.42226038  0.25218318     0.09150
C1450       C  0.94537543  0.41190549  0.24053460    -0.13000
H1451       H  0.92779412  0.41012212  0.21105292     0.13130
H1452       H  0.97802007  0.45772834  0.21383326     0.13130
H1453       H  0.98587092  0.44713557  0.25107095     0.13130
H1454       H  0.93612530  0.39908788  0.24777228     0.13130
C1455       C  0.81346112  0.44308631  0.09879313    -0.13000
C1456       C  0.83040753  0.43520362  0.08619881     0.09150
C1457       C  0.82581358  0.42125252  0.06909232    -0.13000
C1458       C  0.80466924  0.41475929  0.06509158    -0.13000
C1459       C  0.78777386  0.42271350  0.07766759     0.09150
C1460       C  0.79228180  0.43716542  0.09433589    -0.13000
H1461       H  0.81660541  0.45389471  0.11204056     0.13130
H1462       H  0.83863093  0.41484711  0.05926573     0.13130
H1463       H  0.80147107  0.40364738  0.05211005     0.13130
H1464       H  0.77946118  0.44341130  0.10427867     0.13130
C1465       C  0.61974493  0.93364591  0.42115044    -0.12930
C1466       C  0.60619691  0.93366666  0.43486029    -0.14490
C1467       C  0.98125083  0.58338573  0.42018724    -0.12930
C1468       C  0.98015952  0.57036853  0.43449212    -0.14490
C1469       C  0.62258771  0.58157585  0.06191798    -0.12930
C1470       C  0.60813437  0.56863907  0.06255182    -0.14490
C1471       C  0.01598584  0.57962958  0.02878713    -0.12930
C1472       C  0.00215560  0.58180233  0.04215116    -0.14490
C1473       C  0.94750391  0.64139063  0.22021031    -0.13000
C1474       C  0.96016515  0.62797733  0.20724075     0.09150
C1475       C  0.97821198  0.61792019  0.21639331    -0.13000
C1476       C  0.98329656  0.62107009  0.23809484    -0.13000
C1477       C  0.97071613  0.63470604  0.25081487     0.09150
C1478       C  0.95285135  0.64486876  0.24168389    -0.13000
H1479       H  0.93361592  0.64953447  0.21373981     0.13130
H1480       H  0.98826252  0.60742010  0.20689916     0.13130
H1481       H  0.99724287  0.61320421  0.24484334     0.13130
H1482       H  0.94289054  0.65541636  0.25125678     0.13130
C1483       C  0.82496926  0.61395326  0.06854039    -0.13000
C1484       C  0.83603988  0.62777877  0.08253639     0.09150
C1485       C  0.82510127  0.64534492  0.09140725    -0.13000
C1486       C  0.80357749  0.64907973  0.08638653    -0.13000
C1487       C  0.79233095  0.63505448  0.07276691     0.09150
C1488       C  0.80319420  0.61739182  0.06393402    -0.13000
H1489       H  0.83301095  0.60023365  0.06155817     0.13130
H1490       H  0.83325302  0.65634746  0.10211951     0.13130
H1491       H  0.79560748  0.66274843  0.09354274     0.13130
H1492       H  0.79491666  0.60641005  0.05329989     0.13130
C1493       C  0.99962970  0.96095165  0.39857010    -0.12930
C1494       C  0.01346851  0.97426428  0.39638927    -0.14490
C1495       C  0.81398587  0.89938800  0.39495588    -0.13000
C1496       C  0.83059065  0.91360074  0.38939412     0.09150
C1497       C  0.82562674  0.93227624  0.37777333    -0.13000
C1498       C  0.80452719  0.93633765  0.37132763    -0.13000
C1499       C  0.78805283  0.92210793  0.37693272     0.09150
C1500       C  0.79283521  0.90376282  0.38900538    -0.13000
H1501       H  0.81731522  0.88495267  0.40401700     0.13130
H1502       H  0.83810065  0.94344347  0.37315002     0.13130
H1503       H  0.80101575  0.95065511  0.36213238     0.13130
H1504       H  0.78024446  0.89262469  0.39346131     0.13130
C1505       C  0.95117077  0.78631824  0.37176835    -0.13000
C1506       C  0.95689595  0.79383011  0.39216487     0.09150
C1507       C  0.96886755  0.78070819  0.40592318    -0.13000
C1508       C  0.97458448  0.75998069  0.39951058    -0.13000
C1509       C  0.96884177  0.75235238  0.37904448     0.09150
C1510       C  0.95729223  0.76584810  0.36515432    -0.13000
H1511       H  0.94202459  0.79636181  0.36092297     0.13130
H1512       H  0.97339129  0.78635003  0.42173704     0.13130
H1513       H  0.98358958  0.75000516  0.41050601     0.13130
H1514       H  0.95247254  0.76045106  0.34936815     0.13130
C1515       C  0.64169231  0.96172002  0.04026940    -0.12930
C1516       C  0.64323284  0.97509364  0.02639036    -0.14490
C1517       C  0.67264030  0.93364753  0.23541818    -0.13000
C1518       C  0.66336453  0.92195697  0.25226365     0.09150
C1519       C  0.64769862  0.90643327  0.24764031    -0.13000
C1520       C  0.64179259  0.90226086  0.22641647    -0.13000
C1521       C  0.65099423  0.91399544  0.20953925     0.09150
C1522       C  0.66625686  0.92992476  0.21422090    -0.13000
H1523       H  0.68466179  0.94577487  0.23868626     0.13130
H1524       H  0.64039722  0.89717460  0.26041554     0.13130
H1525       H  0.62995169  0.88994631  0.22319114     0.13130
H1526       H  0.67369251  0.93906993  0.20145325     0.13130
C1527       C  0.65820822  0.78839543  0.06416272    -0.13000
C1528       C  0.64980713  0.79294081  0.08464709     0.09150
C1529       C  0.64738047  0.77604558  0.09941513    -0.13000
C1530       C  0.65330383  0.75515825  0.09386371    -0.13000
C1531       C  0.66205602  0.75086922  0.07361444     0.09150
C1532       C  0.66448216  0.76754904  0.05878393    -0.13000
H1533       H  0.66042631  0.80096493  0.05240893     0.13130
H1534       H  0.64084360  0.77888304  0.11524569     0.13130
H1535       H  0.65140598  0.74238497  0.10549883     0.13130
H1536       H  0.67120193  0.76441554  0.04305775     0.13130
C1537       C  0.14227005  0.58291916  0.41982109    -0.12930
C1538       C  0.14285551  0.56983696  0.43405063    -0.14490
C1539       C  0.50086360  0.93414228  0.42097017    -0.12930
C1540       C  0.51442921  0.93385888  0.43470390    -0.14490
C1541       C  0.49950920  0.58310855  0.06166329    -0.12930
C1542       C  0.51360491  0.56987183  0.06237271    -0.14490
C1543       C  0.47753851  0.96195354  0.04037688    -0.12930
C1544       C  0.47557737  0.97514427  0.02637404    -0.14490
C1545       C  0.44911315  0.90599206  0.21687061    -0.13000
C1546       C  0.46848693  0.91419786  0.20891989     0.09150
C1547       C  0.48165067  0.92657531  0.22231854    -0.13000
C1548       C  0.47569720  0.93027083  0.24366741    -0.13000
C1549       C  0.45622657  0.92209213  0.25168009     0.09150
C1550       C  0.44289830  0.91011901  0.23798123    -0.13000
H1551       H  0.43875704  0.89642625  0.20668598     0.13130
H1552       H  0.49671918  0.93292892  0.21640487     0.13130
H1553       H  0.48623211  0.93963914  0.25382751     0.13130
H1554       H  0.42790708  0.90345429  0.24369654     0.13130
C1555       C  0.47459502  0.78570299  0.06317378    -0.13000
C1556       C  0.47039004  0.79317835  0.08406742     0.09150
C1557       C  0.46041323  0.77932453  0.09883861    -0.13000
C1558       C  0.45431011  0.75867811  0.09269875    -0.13000
C1559       C  0.45843881  0.75139442  0.07185706     0.09150
C1560       C  0.46882876  0.76486042  0.05718110    -0.13000
H1561       H  0.48238284  0.79589521  0.05146814     0.13130
H1562       H  0.45678687  0.78453574  0.11499270     0.13130
H1563       H  0.44635637  0.74835519  0.10421223     0.13130
H1564       H  0.47209947  0.75937325  0.04101171     0.13130
C1565       C  0.12089641  0.96242072  0.39833312    -0.12930
C1566       C  0.10674881  0.97542867  0.39643365    -0.14490
C1567       C  0.30331435  0.92430231  0.40400459    -0.13000
C1568       C  0.28907978  0.91394384  0.39003358     0.09150
C1569       C  0.29604421  0.90780753  0.36956644    -0.13000
C1570       C  0.31709415  0.91193684  0.36309104    -0.13000
C1571       C  0.33166102  0.92189977  0.37717106     0.09150
C1572       C  0.32453083  0.92808431  0.39770312    -0.13000
H1573       H  0.29812016  0.92906205  0.41990143     0.13130
H1574       H  0.28516168  0.89980429  0.35861017     0.13130
H1575       H  0.32203120  0.90683374  0.34724690     0.13130
H1576       H  0.33527109  0.93592251  0.40888065     0.13130
C1577       C  0.17409965  0.77649422  0.40093694    -0.13000
C1578       C  0.16348346  0.79405052  0.39172918     0.09150
C1579       C  0.14714008  0.79045205  0.37662772    -0.13000
C1580       C  0.14185067  0.76958725  0.37042134    -0.13000
C1581       C  0.15238552  0.75203234  0.37970991     0.09150
C1582       C  0.16836150  0.75560731  0.39520484    -0.13000
H1583       H  0.18672269  0.77894499  0.41264081     0.13130
H1584       H  0.13886441  0.80378888  0.36918943     0.13130
H1585       H  0.12944460  0.76714313  0.35848830     0.13130
H1586       H  0.17679454  0.74226515  0.40245803     0.13130
C1587       C  0.12211092  0.58212898  0.04262675    -0.12930
C1588       C  0.10859303  0.57947898  0.02906043    -0.14490
C1589       C  0.30317166  0.61649184  0.09392843    -0.13000
C1590       C  0.28684120  0.62755134  0.08309964     0.09150
C1591       C  0.29222980  0.64167234  0.06641817    -0.13000
C1592       C  0.31375958  0.64519946  0.06110629    -0.13000
C1593       C  0.33010820  0.63405519  0.07188325     0.09150
C1594       C  0.32463212  0.61944168  0.08811261    -0.13000
H1595       H  0.29928978  0.60545152  0.10677637     0.13130
H1596       H  0.27982135  0.65038599  0.05792247     0.13130
H1597       H  0.31765810  0.65654346  0.04852845     0.13130
H1598       H  0.33699327  0.61081476  0.09674796     0.13130
C1599       C  0.14922297  0.64566471  0.21307612    -0.13000
C1600       C  0.16214938  0.62815612  0.20749365     0.09150
C1601       C  0.16929682  0.61410721  0.22350549    -0.13000
C1602       C  0.16356856  0.61749935  0.24492990    -0.13000
C1603       C  0.15107577  0.63534778  0.25072747     0.09150
C1604       C  0.14394896  0.64940346  0.23457910    -0.13000
H1605       H  0.14361841  0.65667272  0.20084918     0.13130
H1606       H  0.17925025  0.60047394  0.21939008     0.13130
H1607       H  0.16942844  0.60648049  0.25699654     0.13130
H1608       H  0.13420421  0.66321548  0.23854665     0.13130
C1609       C  0.60621109  0.93448701  0.52710616    -0.12930
C1610       C  0.61978660  0.93494722  0.54082642    -0.14490
C1611       C  0.62344140  0.58285701  0.90099371    -0.12930
C1612       C  0.60892888  0.56998492  0.90030648    -0.14490
C1613       C  0.98017295  0.58257038  0.54385167    -0.12930
C1614       C  0.97963192  0.56961229  0.52940120    -0.14490
C1615       C  0.00279804  0.58493065  0.92323643    -0.12930
C1616       C  0.01635816  0.58223240  0.93676675    -0.14490
C1617       C  0.82660823  0.64874063  0.87531552    -0.13000
C1618       C  0.83709938  0.63025779  0.88267205     0.09150
C1619       C  0.82562976  0.61541184  0.89518892    -0.13000
C1620       C  0.80383345  0.61875402  0.89974059    -0.13000
C1621       C  0.79335088  0.63729715  0.89237013     0.09150
C1622       C  0.80506071  0.65235369  0.88032171    -0.13000
H1623       H  0.83513193  0.66049363  0.86574765     0.13130
H1624       H  0.83337304  0.60098611  0.90096852     0.13130
H1625       H  0.79522897  0.60694714  0.90915455     0.13130
H1626       H  0.79744079  0.66672630  0.87428401     0.13130
C1627       C  0.98268594  0.63245169  0.75105694    -0.13000
C1628       C  0.96116940  0.62978005  0.75743394     0.09150
C1629       C  0.94508228  0.62975343  0.74156930    -0.13000
C1630       C  0.95035746  0.63239734  0.71990317    -0.13000
C1631       C  0.97176038  0.63534295  0.71369647     0.09150
C1632       C  0.98790420  0.63540047  0.72937011    -0.13000
H1633       H  0.99545575  0.63270262  0.76283278     0.13130
H1634       H  0.92839206  0.62754924  0.74582620     0.13130
H1635       H  0.93769762  0.63245725  0.70798578     0.13130
H1636       H  0.00451109  0.63781529  0.72482015     0.13130
C1637       C  0.64083288  0.96302728  0.91901857    -0.12930
C1638       C  0.64277169  0.97614823  0.93306650    -0.14490
C1639       C  0.64111455  0.92966865  0.73984213    -0.13000
C1640       C  0.65127375  0.91331917  0.75149446     0.09150
C1641       C  0.66806181  0.90176103  0.74193994    -0.13000
C1642       C  0.67474603  0.90658924  0.72110957    -0.13000
C1643       C  0.66433197  0.92262949  0.70925451     0.09150
C1644       C  0.64736333  0.93405274  0.71871460    -0.13000
H1645       H  0.62810002  0.93873596  0.74694417     0.13130
H1646       H  0.67621954  0.88918481  0.75071294     0.13130
H1647       H  0.68776161  0.89745879  0.71410055     0.13130
H1648       H  0.63914653  0.94653481  0.70986249     0.13130
C1649       C  0.63900705  0.77662210  0.86989741    -0.13000
C1650       C  0.65023683  0.79427883  0.87815207     0.09150
C1651       C  0.66749558  0.79090707  0.89221261    -0.13000
C1652       C  0.67382315  0.77008123  0.89750228    -0.13000
C1653       C  0.66256285  0.75236237  0.88931533     0.09150
C1654       C  0.64491133  0.75580618  0.87570792    -0.13000
H1655       H  0.62562795  0.77896369  0.85904349     0.13130
H1656       H  0.67643660  0.80437210  0.89862447     0.13130
H1657       H  0.68743064  0.76782286  0.90807630     0.13130
H1658       H  0.63607020  0.74240349  0.86906006     0.13130
C1659       C  0.01393928  0.97576949  0.56406631    -0.12930
C1660       C  0.00009104  0.96239194  0.56256172    -0.14490
C1661       C  0.97114819  0.79051576  0.58905200    -0.13000
C1662       C  0.95699523  0.79386009  0.57183937     0.09150
C1663       C  0.94866357  0.77613653  0.56076419    -0.13000
C1664       C  0.95450989  0.75533322  0.56673221    -0.13000
C1665       C  0.96827146  0.75192989  0.58428612     0.09150
C1666       C  0.97649811  0.76970486  0.59542643    -0.13000
H1667       H  0.97766515  0.80399709  0.59788641     0.13130
H1668       H  0.93778224  0.77840808  0.54739592     0.13130
H1669       H  0.94782537  0.74190717  0.55795995     0.13130
H1670       H  0.98720082  0.76750979  0.60894478     0.13130
C1671       C  0.81467073  0.90641516  0.55863058    -0.13000
C1672       C  0.83166186  0.91356205  0.57152356     0.09150
C1673       C  0.82722732  0.92498983  0.59041002    -0.13000
C1674       C  0.80600159  0.92873542  0.59662597    -0.13000
C1675       C  0.78893344  0.92165921  0.58370281     0.09150
C1676       C  0.79346114  0.91072101  0.56449764    -0.13000
H1677       H  0.81783910  0.89760576  0.54397905     0.13130
H1678       H  0.84017801  0.93052529  0.60060908     0.13130
H1679       H  0.80293928  0.93730018  0.61143705     0.13130
H1680       H  0.78060885  0.90497763  0.55430671     0.13130
C1681       C  0.50097765  0.93533693  0.54067818    -0.12930
C1682       C  0.51452693  0.93466068  0.52698366    -0.14490
C1683       C  0.14294099  0.58327348  0.54263783    -0.12930
C1684       C  0.14341463  0.57006569  0.52842209    -0.14490
C1685       C  0.51425707  0.57145888  0.90012982    -0.12930
C1686       C  0.50014980  0.58469784  0.90095633    -0.14490
C1687       C  0.10847636  0.58225465  0.93655489    -0.12930
C1688       C  0.12176618  0.58548866  0.92286313    -0.14490
C1689       C  0.30336598  0.62188188  0.86758164    -0.13000
C1690       C  0.28703088  0.62951181  0.88110640     0.09150
C1691       C  0.29263203  0.64006222  0.90023956    -0.13000
C1692       C  0.31423446  0.64344607  0.90543065    -0.13000
C1693       C  0.33049579  0.63563928  0.89195678     0.09150
C1694       C  0.32492810  0.62462956  0.87313877    -0.13000
H1695       H  0.29945619  0.61359404  0.85281240     0.13130
H1696       H  0.28031599  0.64617174  0.91087213     0.13130
H1697       H  0.31827849  0.65205508  0.91998960     0.13130
H1698       H  0.33727909  0.61867945  0.86245576     0.13130
C1699       C  0.17444709  0.61811540  0.74054630    -0.13000
C1700       C  0.16264520  0.62873220  0.75652605     0.09150
C1701       C  0.14567721  0.64224403  0.75050209    -0.13000
C1702       C  0.14106745  0.64562998  0.72875591    -0.13000
C1703       C  0.15283274  0.63491860  0.71277767     0.09150
C1704       C  0.16933687  0.62088842  0.71886458    -0.13000
H1705       H  0.18755794  0.60756839  0.74486531     0.13130
H1706       H  0.13643945  0.65065524  0.76258882     0.13130
H1707       H  0.12827238  0.65654377  0.72439280     0.13130
H1708       H  0.17873004  0.61261001  0.70681645     0.13130
C1709       C  0.12046667  0.96217367  0.56174548    -0.12930
C1710       C  0.10670363  0.97561075  0.56367464    -0.14490
C1711       C  0.30482866  0.91959783  0.55537361    -0.13000
C1712       C  0.28901907  0.91586332  0.57084990     0.09150
C1713       C  0.29443877  0.91610747  0.59263934    -0.13000
C1714       C  0.31561335  0.91984414  0.59895858    -0.13000
C1715       C  0.33176076  0.92326973  0.58353303     0.09150
C1716       C  0.32604747  0.92329366  0.56164293    -0.13000
H1717       H  0.30080255  0.91931346  0.53845835     0.13130
H1718       H  0.28230364  0.91314493  0.60473544     0.13130
H1719       H  0.31924175  0.91978625  0.61592687     0.13130
H1720       H  0.33791130  0.92586139  0.54924773     0.13130
C1721       C  0.14672011  0.78427064  0.56296102    -0.13000
C1722       C  0.16553975  0.79381395  0.57094367     0.09150
C1723       C  0.17855034  0.78221714  0.58522862    -0.13000
C1724       C  0.17264018  0.76163334  0.59175460    -0.13000
C1725       C  0.15396477  0.75205444  0.58363923     0.09150
C1726       C  0.14115440  0.76336812  0.56900404    -0.13000
H1727       H  0.13647209  0.79287571  0.55187895     0.13130
H1728       H  0.19303992  0.78923991  0.59177064     0.13130
H1729       H  0.18278168  0.75307174  0.60297795     0.13130
H1730       H  0.12666302  0.75618829  0.56261782     0.13130
C1731       C  0.47901559  0.96180946  0.91929530    -0.12930
C1732       C  0.47654216  0.97503077  0.93316422    -0.14490
C1733       C  0.45374311  0.78462049  0.86727896    -0.13000
C1734       C  0.47153642  0.79442042  0.87701083     0.09150
C1735       C  0.48282279  0.78344838  0.89309704    -0.13000
C1736       C  0.47660733  0.76272683  0.89907094    -0.13000
C1737       C  0.45860018  0.75307493  0.88954110     0.09150
C1738       C  0.44713855  0.76423651  0.87371179    -0.13000
H1739       H  0.44471568  0.79288970  0.85494332     0.13130
H1740       H  0.49661619  0.79076688  0.90075073     0.13130
H1741       H  0.48563239  0.75437193  0.91134511     0.13130
H1742       H  0.43330786  0.75703107  0.86602462     0.13130
C1743       C  0.47767500  0.93182108  0.74033373    -0.13000
C1744       C  0.46947472  0.91370573  0.75092145     0.09150
C1745       C  0.45496081  0.90023650  0.74013606    -0.13000
C1746       C  0.44850314  0.90494142  0.71924473    -0.13000
C1747       C  0.45686490  0.92287514  0.70857758     0.09150
C1748       C  0.47165704  0.93619171  0.71914419    -0.13000
H1749       H  0.48893728  0.94238445  0.74832714     0.13130
H1750       H  0.44824991  0.88627392  0.74798974     0.13130
H1751       H  0.43720228  0.89437884  0.71129278     0.13130
H1752       H  0.47824947  0.95013050  0.71112824     0.13130
C1753       C  0.14476693  0.47768536  0.52632860    -0.12930
C1754       C  0.14446944  0.46357564  0.53951811    -0.14490
C1755       C  0.49929821  0.10860731  0.53906444    -0.12930
C1756       C  0.51297343  0.10927451  0.52545919    -0.14490
C1757       C  0.51478613  0.47894587  0.89680220    -0.12930
C1758       C  0.50154863  0.46479428  0.89647302    -0.14490
C1759       C  0.46706524  0.08133992  0.92111400    -0.12930
C1760       C  0.46728608  0.06710915  0.93418763    -0.14490
C1761       C  0.44171199  0.26231402  0.86490188    -0.13000
C1762       C  0.45882438  0.25172261  0.87496170     0.09150
C1763       C  0.47174287  0.26303346  0.88956911    -0.13000
C1764       C  0.46782362  0.28480638  0.89368670    -0.13000
C1765       C  0.45048449  0.29531295  0.88380236     0.09150
C1766       C  0.43738975  0.28379232  0.86951219    -0.13000
H1767       H  0.43150702  0.25387184  0.85362974     0.13130
H1768       H  0.48509659  0.25514927  0.89741212     0.13130
H1769       H  0.47809938  0.29333570  0.90481595     0.13130
H1770       H  0.42402132  0.29151534  0.86155039     0.13130
C1771       C  0.45183792  0.10719930  0.74635535    -0.13000
C1772       C  0.46141091  0.12683602  0.75198880     0.09150
C1773       C  0.46777408  0.14103652  0.73566604    -0.13000
C1774       C  0.46444293  0.13577929  0.71412756    -0.13000
C1775       C  0.45424837  0.11650704  0.70864939     0.09150
C1776       C  0.44800223  0.10222169  0.72483182    -0.13000
H1777       H  0.44664622  0.09600427  0.75857512     0.13130
H1778       H  0.47531205  0.15620238  0.73952934     0.13130
H1779       H  0.46919454  0.14704246  0.70176628     0.13130
H1780       H  0.44006466  0.08728809  0.72078919     0.13130
C1781       C  0.11927521  0.08166531  0.57176972    -0.12930
C1782       C  0.10595814  0.06768039  0.57173960    -0.14490
C1783       C  0.17822789  0.26318251  0.59463647    -0.13000
C1784       C  0.16564488  0.25158796  0.57997520     0.09150
C1785       C  0.14839750  0.26184337  0.56971406    -0.13000
C1786       C  0.14406090  0.28351210  0.57384772    -0.13000
C1787       C  0.15648293  0.29492130  0.58881217     0.09150
C1788       C  0.17351575  0.28454694  0.59921878    -0.13000
H1789       H  0.19151633  0.25561177  0.60287960     0.13130
H1790       H  0.13853914  0.25320982  0.55828666     0.13130
H1791       H  0.13079962  0.29124070  0.56570362     0.13130
H1792       H  0.18339231  0.29307025  0.61071431     0.13130
C1793       C  0.30137326  0.14122477  0.59035259    -0.13000
C1794       C  0.28834729  0.12772558  0.57783919     0.09150
C1795       C  0.29706892  0.10871345  0.56942010    -0.13000
C1796       C  0.31851049  0.10337252  0.57342154    -0.13000
C1797       C  0.33122308  0.11666541  0.58638261     0.09150
C1798       C  0.32254884  0.13559314  0.59480577    -0.13000
H1799       H  0.29505897  0.15587137  0.59720846     0.13130
H1800       H  0.28738005  0.09809426  0.55965053     0.13130
H1801       H  0.32502150  0.08865379  0.56687214     0.13130
H1802       H  0.33221436  0.14604998  0.60479442     0.13130
C1803       C  0.10579455  0.46444296  0.93408981    -0.12930
C1804       C  0.11958290  0.46358847  0.92041945    -0.14490
C1805       C  0.30556326  0.44287482  0.86044191    -0.13000
C1806       C  0.28882428  0.43607949  0.87396045     0.09150
C1807       C  0.29376209  0.42345040  0.89197619    -0.13000
C1808       C  0.31497221  0.41720064  0.89600415    -0.13000
C1809       C  0.33162355  0.42407749  0.88249402     0.09150
C1810       C  0.32681346  0.43719186  0.86486305    -0.13000
H1811       H  0.30223202  0.45269248  0.84650170     0.13130
H1812       H  0.28116574  0.41788231  0.90257258     0.13130
H1813       H  0.31841835  0.40711413  0.90972874     0.13130
H1814       H  0.33945406  0.44258475  0.85420805     0.13130
C1815       C  0.16266613  0.41428420  0.74718336    -0.13000
C1816       C  0.16547926  0.43601801  0.75206989     0.09150
C1817       C  0.16414147  0.45131100  0.73569307    -0.13000
C1818       C  0.16015562  0.44491525  0.71453403    -0.13000
C1819       C  0.15757343  0.42305519  0.70938964     0.09150
C1820       C  0.15872701  0.40783790  0.72604676    -0.13000
H1821       H  0.16380283  0.40228744  0.75970569     0.13130
H1822       H  0.16645471  0.46816487  0.73925328     0.13130
H1823       H  0.15948279  0.45713303  0.70224688     0.13130
H1824       H  0.15671261  0.39091152  0.72285332     0.13130
C1825       C  0.60546735  0.10978558  0.52543771    -0.12930
C1826       C  0.61926472  0.10948072  0.53897140    -0.14490
C1827       C  0.97615871  0.47757600  0.52638914    -0.12930
C1828       C  0.97597125  0.46343138  0.53957048    -0.14490
C1829       C  0.61856798  0.46380828  0.89702737    -0.12930
C1830       C  0.60547158  0.47802052  0.89710887    -0.14490
C1831       C  0.01287538  0.46458963  0.93418569    -0.12930
C1832       C  0.99917390  0.46368230  0.92045850    -0.14490
C1833       C  0.96831469  0.42057904  0.74765340    -0.13000
C1834       C  0.95296925  0.43654884  0.75174639     0.09150
C1835       C  0.94225869  0.44617759  0.73443507    -0.13000
C1836       C  0.94691628  0.44005043  0.71335576    -0.13000
C1837       C  0.96184694  0.42369573  0.70928144     0.09150
C1838       C  0.97246090  0.41395069  0.72659065    -0.13000
H1839       H  0.97665842  0.41282925  0.76077583     0.13130
H1840       H  0.93039145  0.45855426  0.73722434     0.13130
H1841       H  0.93844654  0.44771151  0.70025751     0.13130
H1842       H  0.98409476  0.40135629  0.72379517     0.13130
C1843       C  0.81333768  0.44648974  0.86292296    -0.13000
C1844       C  0.83056705  0.43673161  0.87364243     0.09150
C1845       C  0.82636040  0.42063955  0.88884166    -0.13000
C1846       C  0.80526363  0.41399854  0.89280762    -0.13000
C1847       C  0.78804141  0.42386170  0.88216926     0.09150
C1848       C  0.79222450  0.44035572  0.86741523    -0.13000
H1849       H  0.81621952  0.45895945  0.85116754     0.13130
H1850       H  0.83942255  0.41279415  0.89718817     0.13130
H1851       H  0.80237115  0.40129534  0.90430804     0.13130
H1852       H  0.77918477  0.44810913  0.85894064     0.13130
C1853       C  0.00097452  0.08138336  0.57199906    -0.12930
C1854       C  0.01443239  0.06751241  0.57196281    -0.14490
C1855       C  0.97230948  0.28458837  0.57183361    -0.13000
C1856       C  0.96426363  0.29437958  0.59051486     0.09150
C1857       C  0.95165516  0.28219405  0.60468874    -0.13000
C1858       C  0.94686648  0.26080348  0.60013332    -0.13000
C1859       C  0.95505332  0.25098569  0.58162740     0.09150
C1860       C  0.96800367  0.26291791  0.56759047    -0.13000
H1861       H  0.98212177  0.29360106  0.56067696     0.13130
H1862       H  0.94506659  0.28931218  0.61909666     0.13130
H1863       H  0.93688414  0.25183056  0.61118652     0.13130
H1864       H  0.97437125  0.25560067  0.55316477     0.13130
C1865       C  0.82329292  0.13115910  0.59941190    -0.13000
C1866       C  0.83207882  0.12668653  0.57922850     0.09150
C1867       C  0.81930620  0.11703273  0.56341334    -0.13000
C1868       C  0.79773803  0.11230642  0.56766034    -0.13000
C1869       C  0.78888275  0.11670073  0.58796051     0.09150
C1870       C  0.80196509  0.12600297  0.60383362    -0.13000
H1871       H  0.83299694  0.13860030  0.61178481     0.13130
H1872       H  0.82590303  0.11357380  0.54770493     0.13130
H1873       H  0.78807603  0.10507114  0.55515710     0.13130
H1874       H  0.79563817  0.12979923  0.61954796     0.13130
C1875       C  0.65105936  0.06778855  0.93493230    -0.12930
C1876       C  0.65149966  0.08188325  0.92172769    -0.14490
C1877       C  0.65023469  0.26160637  0.89260649    -0.13000
C1878       C  0.65926816  0.25186492  0.87438040     0.09150
C1879       C  0.67275154  0.26399311  0.86099850    -0.13000
C1880       C  0.67744002  0.28533536  0.86592673    -0.13000
C1881       C  0.66822701  0.29515288  0.88395851     0.09150
C1882       C  0.65439469  0.28323667  0.89715845    -0.13000
H1883       H  0.63973103  0.25258844  0.90311684     0.13130
H1884       H  0.68004543  0.25684345  0.84694047     0.13130
H1885       H  0.68808508  0.29428407  0.85549322     0.13130
H1886       H  0.64719592  0.29054098  0.91119157     0.13130
C1887       C  0.64554127  0.13694374  0.73606155    -0.13000
C1888       C  0.65700526  0.12643400  0.75233948     0.09150
C1889       C  0.67208932  0.11068086  0.74680151    -0.13000
C1890       C  0.67618238  0.10602506  0.72526260    -0.13000
C1891       C  0.66481350  0.11660691  0.70895860     0.09150
C1892       C  0.64918858  0.13183425  0.71452105    -0.13000
H1893       H  0.63377345  0.14909188  0.74002152     0.13130
H1894       H  0.68120740  0.10246927  0.75910604     0.13130
H1895       H  0.68825132  0.09416520  0.72133377     0.13130
H1896       H  0.64032669  0.14030070  0.70220569     0.13130
loop_ 
_geom_bond_atom_site_label_1 
_geom_bond_atom_site_label_2 
_geom_bond_distance 
_geom_bond_site_symmetry_2 
_ccdc_geom_bond_type 
N1            N2   1.321       .  A
N1            C5   1.344       .  A
N1           Cu9   2.070       .  S
N2            C3   1.344       .  A
N2           Cu8   2.064       .  S
C3            C4   1.383       .  A
C3            H6   1.082       .  S
C4            C5   1.384       .  A
C4         C1888   1.472       .  S
C5            H7   1.081       .  S
Cu8          N11   2.065       .  S
Cu9          N19   2.071       .  S
Cu10         N12   2.080       .  S
Cu10         N18   2.080       .  S
N11          N12   1.324       .  A
N11          C15   1.344       .  A
N12          C13   1.346       .  A
C13          C14   1.380       .  A
C13          H16   1.081       .  S
C14          C15   1.377       .  A
C14        C1876   1.434       .  S
C15          H17   1.082       .  S
N18          N19   1.322       .  A
N18          C22   1.347       .  A
N19          C20   1.343       .  A
C20          C21   1.383       .  A
C20          H23   1.082       .  S
C21          C22   1.386       .  A
C21        C1878   1.478       .  S
C22          H24   1.081       .  S
N25          N26   1.322       .  A
N25          C29   1.342       .  A
N25         Cu33   2.067       .  S
N26          C27   1.348       .  A
N26         Cu32   2.080       .  S
C27          C28   1.385       .  A
C27          H30   1.082       .  S
C28          C29   1.381       .  A
C28        C1859   1.473       .  S
C29          H31   1.082       .  S
Cu32         N35   2.080       .  S
Cu33         N43   2.066       .  S
Cu34         N36   2.072       .  S
Cu34         N42   2.071       .  S
N35          N36   1.324       .  A
N35          C39   1.346       .  A
N36          C37   1.345       .  A
C37          C38   1.378       .  A
C37          H40   1.082       .  S
C38          C39   1.380       .  A
C38        C1853   1.436   1_655  S
C39          H41   1.081   1_655  S
N42          N43   1.322       .  A
N42          C46   1.346       .  A
N43          C44   1.343       .  A
C44          C45   1.380       .  A
C44          H47   1.082       .  S
C45          C46   1.382       .  A
C45        C1866   1.467       .  S
C46          H48   1.082       .  S
N49          N50   1.322       .  A
N49          C53   1.345       .  A
N49         Cu57   2.073       .  S
N50          C51   1.346       .  A
N50         Cu56   2.081       .  S
C51          C52   1.385       .  A
C51          H54   1.082       .  S
C52          C53   1.383       .  A
C52        C1834   1.476       .  S
C53          H55   1.082       .  S
Cu56         N59   2.081       .  S
Cu57         N67   2.073       .  S
Cu58         N60   2.081       .  S
Cu58         N66   2.081       .  S
N59          N60   1.324       .  A
N59          C63   1.347       .  A
N60          C61   1.347       .  A
C61          C62   1.381       .  A
C61          H64   1.082       .  S
C62          C63   1.381       .  A
C62        C1832   1.443       .  S
C63          H65   1.082   1_655  S
N66          N67   1.322       .  A
N66          C70   1.347       .  A
N67          C68   1.345       .  A
C68          C69   1.383       .  A
C68          H71   1.082       .  S
C69          C70   1.385       .  A
C69        C1844   1.476       .  S
C70          H72   1.082       .  S
N73          N74   1.321       .  A
N73          C77   1.346       .  A
N73         Cu81   2.075       .  S
N74          C75   1.344       .  A
N74         Cu80   2.066       .  S
C75          C76   1.383       .  A
C75          H78   1.082       .  S
C76          C77   1.385       .  A
C76        C1847   1.475       .  S
C77          H79   1.081       .  S
Cu80         N83   2.065       .  S
Cu81         N91   2.076       .  S
Cu82         N84   2.083       .  S
Cu82         N90   2.082       .  S
N83          N84   1.324       .  A
N83          C87   1.344       .  A
N84          C85   1.347       .  A
C85          C86   1.382       .  A
C85          H88   1.081       .  S
C86          C87   1.376       .  A
C86        C1829   1.436       .  S
C87          H89   1.082       .  S
N90          N91   1.324       .  A
N90          C94   1.348       .  A
N91          C92   1.344       .  A
C92          C93   1.382       .  A
C92          H95   1.082       .  S
C93          C94   1.384       .  A
C93        C1881   1.474       .  S
C94          H96   1.082       .  S
N97          N98   1.321       .  A
N97         C101   1.346       .  A
N97        Cu105   2.076       .  S
N98          C99   1.344       .  A
N98        Cu104   2.066       .  S
C99         C100   1.383       .  A
C99         H102   1.082       .  S
C100        C101   1.385       .  A
C100       C1837   1.476       .  S
C101        H103   1.081       .  S
Cu104       N107   2.066       .  S
Cu105       N115   2.076       .  S
Cu106       N108   2.082       .  S
Cu106       N114   2.082       .  S
N107        N108   1.323       .  A
N107        C111   1.344       .  A
N108        C109   1.347       .  A
C109        C110   1.381       .  A
C109        H112   1.082       .  S
C110        C111   1.377       .  A
C110       C1828   1.436       .  S
C111        H113   1.082       .  S
N114        N115   1.323       .  A
N114        C118   1.348       .  A
N115        C116   1.343       .  A
C116        C117   1.384       .  A
C116        H119   1.081       .  S
C117        C118   1.386       .  A
C117       C1856   1.481       .  S
C118        H120   1.081       .  S
N121        N122   1.321       .  A
N121        C125   1.343       .  A
N121       Cu129   2.064       .  S
N122        C123   1.345       .  A
N122       Cu128   2.069       .  S
C123        C124   1.385       .  A
C123        H126   1.082       .  S
C124        C125   1.383       .  A
C124       C1891   1.474       .  S
C125        H127   1.082       .  S
Cu128       N131   2.070       .  S
Cu129       N139   2.064       .  S
Cu130       N132   2.076       .  S
Cu130       N138   2.075       .  S
N131        N132   1.324       .  A
N131        C135   1.344       .  A
N132        C133   1.345       .  A
C133        C134   1.379       .  A
C133        H136   1.082       .  S
C134        C135   1.377       .  A
C134       C1826   1.434       .  S
C135        H137   1.082       .  S
N138        N139   1.321       .  A
N138        C142   1.347       .  A
N139        C140   1.342       .  A
C140        C141   1.384       .  A
C140        H143   1.080       .  S
C141        C142   1.387       .  A
C141       C1869   1.480       .  S
C142        H144   1.081       .  S
N145        N146   1.322       .  A
N145        C149   1.344       .  A
N145       Cu153   2.067       .  S
N146        C147   1.348       .  A
N146       Cu152   2.088       .  S
C147        C148   1.388       .  A
C147        H150   1.082       .  S
C148        C149   1.383       .  A
C148       C1806   1.481       .  S
C149        H151   1.082       .  S
Cu152       N155   2.089       .  S
Cu153       N163   2.067       .  S
Cu154       N156   2.085       .  S
Cu154       N162   2.084       .  S
N155        N156   1.325       .  A
N155        C159   1.348       .  A
N156        C157   1.348       .  A
C157        C158   1.382       .  A
C157        H160   1.081       .  S
C158        C159   1.382       .  A
C158       C1804   1.445       .  S
C159        H161   1.081       .  S
N162        N163   1.323       .  A
N162        C166   1.347       .  A
N163        C164   1.344       .  A
C164        C165   1.379       .  A
C164        H167   1.082       .  S
C165        C166   1.383       .  A
C165       C1816   1.468       .  S
C166        H168   1.082       .  S
N169        N170   1.320       .  A
N169        C173   1.341       .  A
N169       Cu177   2.061       .  S
N170        C171   1.345       .  A
N170       Cu176   2.066       .  S
C171        C172   1.385       .  A
C171        H174   1.081       .  S
C172        C173   1.384       .  A
C172       C1794   1.475       .  S
C173        H175   1.081       .  S
Cu176       N179   2.067       .  S
Cu177       N187   2.062       .  S
Cu178       N180   2.077       .  S
Cu178       N186   2.077       .  S
N179        N180   1.324       .  A
N179        C183   1.344       .  A
N180        C181   1.345       .  A
C181        C182   1.379       .  A
C181        H184   1.082       .  S
C182        C183   1.376       .  A
C182       C1781   1.432       .  S
C183        H185   1.082       .  S
N186        N187   1.321       .  A
N186        C190   1.348       .  A
N187        C188   1.341       .  A
C188        C189   1.382       .  A
C188        H191   1.081       .  S
C189        C190   1.386       .  A
C189       C1784   1.475       .  S
C190        H192   1.081       .  S
N193        N194   1.320       .  A
N193        C197   1.343       .  A
N193       Cu201   2.067       .  S
N194        C195   1.344       .  A
N194       Cu200   2.063       .  S
C195        C196   1.385       .  A
C195        H198   1.081       .  S
C196        C197   1.385       .  A
C196       C1772   1.477       .  S
C197        H199   1.081       .  S
Cu200       N203   2.064       .  S
Cu201       N211   2.068       .  S
Cu202       N204   2.085       .  S
Cu202       N210   2.085       .  S
N203        N204   1.324       .  A
N203        C207   1.344       .  A
N204        C205   1.347       .  A
C205        C206   1.381       .  A
C205        H208   1.081       .  S
C206        C207   1.376       .  A
C206       C1759   1.435       .  S
C207        H209   1.082       .  S
N210        N211   1.322       .  A
N210        C214   1.349       .  A
N211        C212   1.343       .  A
C212        C213   1.381       .  A
C212        H215   1.082       .  S
C213        C214   1.386       .  A
C213       C1762   1.476       .  S
C214        H216   1.081       .  S
N217        N218   1.321       .  A
N217        C221   1.346       .  A
N217       Cu225   2.076       .  S
N218        C219   1.345       .  A
N218       Cu224   2.071       .  S
C219        C220   1.383       .  A
C219        H222   1.082       .  S
C220        C221   1.384       .  A
C220       C1809   1.474       .  S
C221        H223   1.081       .  S
Cu224       N227   2.071       .  S
Cu225       N235   2.076       .  S
Cu226       N228   2.088       .  S
Cu226       N234   2.087       .  S
N227        N228   1.324       .  A
N227        C231   1.345       .  A
N228        C229   1.348       .  A
C229        C230   1.383       .  A
C229        H232   1.082       .  S
C230        C231   1.377       .  A
C230       C1758   1.439       .  S
C231        H233   1.082       .  S
N234        N235   1.323       .  A
N234        C238   1.349       .  A
N235        C236   1.344       .  A
C236        C237   1.383       .  A
C236        H239   1.081       .  S
C237        C238   1.387       .  A
C237       C1765   1.480       .  S
C238        H240   1.082       .  S
N241        N242   1.322       .  A
N241        C245   1.341       .  A
N241       Cu249   2.062       .  S
N242        C243   1.346       .  A
N242       Cu248   2.070       .  S
C243        C244   1.382       .  A
C243        H246   1.082       .  S
C244        C245   1.379       .  A
C244       C1797   1.466       .  S
C245        H247   1.082       .  S
Cu248       N251   2.071       .  S
Cu249       N259   2.062       .  S
Cu250       N252   2.067       .  S
Cu250       N258   2.066       .  S
N251        N252   1.324       .  A
N251        C255   1.345       .  A
N252        C253   1.344       .  A
C253        C254   1.377       .  A
C253        H256   1.081       .  S
C254        C255   1.378       .  A
C254       C1755   1.432       .  S
C255        H257   1.081       .  S
N258        N259   1.321       .  A
N258        C262   1.344       .  A
N259        C260   1.343       .  A
C260        C261   1.380       .  A
C260        H263   1.082       .  S
C261        C262   1.382       .  A
C261       C1775   1.465       .  S
C262        H264   1.082       .  S
N265        N266   1.319       .  A
N265        C269   1.344       .  A
N265       Cu273   2.071       .  S
N266        C267   1.344       .  A
N266       Cu272   2.067       .  S
C267        C268   1.389       .  A
C267        H270   1.080       .  S
C268        C269   1.389       .  A
C268       C1819   1.487       .  S
C269        H271   1.080       .  S
Cu272       N275   2.067       .  S
Cu273       N283   2.071       .  S
Cu274       N276   2.079       .  S
Cu274       N282   2.078       .  S
N275        N276   1.324       .  A
N275        C279   1.343       .  A
N276        C277   1.347       .  A
C277        C278   1.380       .  A
C277        H280   1.082       .  S
C278        C279   1.376       .  A
C278       C1754   1.434       .  S
C279        H281   1.082       .  S
N282        N283   1.323       .  A
N282        C286   1.348       .  A
N283        C284   1.342       .  A
C284        C285   1.382       .  A
C284        H287   1.082       .  S
C285        C286   1.385       .  A
C285       C1787   1.474       .  S
C286        H288   1.082       .  S
N289        N290   1.320       .  A
N289        C293   1.342       .  A
N289       Cu297   2.058       .  S
N290        C291   1.346       .  A
N290       Cu296   2.069       .  S
C291        C292   1.384       .  A
C291        H294   1.082       .  S
C292        C293   1.381       .  A
C292       C1734   1.471       .  S
C293        H295   1.082       .  S
Cu296       N299   2.070       .  S
Cu297       N307   2.058       .  S
Cu298       N300   2.075       .  S
Cu298       N306   2.074       .  S
N299        N300   1.324       .  A
N299        C303   1.344       .  A
N300        C301   1.345       .  A
C301        C302   1.379       .  A
C301        H304   1.082       .  S
C302        C303   1.377       .  A
C302       C1731   1.434       .  S
C303        H305   1.082       .  S
N306        N307   1.321       .  A
N306        C310   1.346       .  A
N307        C308   1.341       .  A
C308        C309   1.382       .  A
C308        H311   1.081       .  S
C309        C310   1.386       .  A
C309       C1744   1.474       .  S
C310        H312   1.081       .  S
N313        N314   1.321       .  A
N313        C317   1.343       .  A
N313       Cu321   2.064       .  S
N314        C315   1.346       .  A
N314       Cu320   2.074       .  S
C315        C316   1.386       .  A
C315        H318   1.081       .  S
C316        C317   1.383       .  A
C316       C1722   1.477       .  S
C317        H319   1.082       .  S
Cu320       N323   2.075       .  S
Cu321       N331   2.063       .  S
Cu322       N324   2.074       .  S
Cu322       N330   2.073       .  S
N323        N324   1.324       .  A
N323        C327   1.345       .  A
N324        C325   1.346       .  A
C325        C326   1.379       .  A
C325        H328   1.082       .  S
C326        C327   1.379       .  A
C326       C1709   1.436       .  S
C327        H329   1.081       .  S
N330        N331   1.322       .  A
N330        C334   1.346       .  A
N331        C332   1.343       .  A
C332        C333   1.378       .  A
C332        H335   1.082       .  S
C333        C334   1.381       .  A
C333       C1712   1.463       .  S
C334        H336   1.082       .  S
N337        N338   1.322       .  A
N337        C341   1.344       .  A
N337       Cu345   2.074       .  S
N338        C339   1.346       .  A
N338       Cu344   2.073       .  S
C339        C340   1.385       .  A
C339        H342   1.082       .  S
C340        C341   1.384       .  A
C340       C1690   1.477       .  S
C341        H343   1.082       .  S
Cu344       N347   2.073       .  S
Cu345       N355   2.074       .  S
Cu346       N348   2.080       .  S
Cu346       N354   2.080       .  S
N347        N348   1.324       .  A
N347        C351   1.345       .  A
N348        C349   1.346       .  A
C349        C350   1.380       .  A
C349        H352   1.081       .  S
C350        C351   1.379       .  A
C350       C1688   1.437       .  S
C351        H353   1.081       .  S
N354        N355   1.322       .  A
N354        C358   1.347       .  A
N355        C356   1.344       .  A
C356        C357   1.383       .  A
C356        H359   1.082       .  S
C357        C358   1.385       .  A
C357       C1700   1.476       .  S
C358        H360   1.082       .  S
N361        N362   1.321       .  A
N361        C365   1.343       .  A
N361       Cu369   2.066       .  S
N362        C363   1.345       .  A
N362       Cu368   2.068       .  S
C363        C364   1.383       .  A
C363        H366   1.082       .  S
C364        C365   1.383       .  A
C364       C1737   1.472       .  S
C365        H367   1.082       .  S
Cu368       N371   2.070       .  S
Cu369       N379   2.066       .  S
Cu370       N372   2.086       .  S
Cu370       N378   2.085       .  S
N371        N372   1.324       .  A
N371        C375   1.345       .  A
N372        C373   1.348       .  A
C373        C374   1.382       .  A
C373        H376   1.081       .  S
C374        C375   1.378       .  A
C374       C1686   1.440       .  S
C375        H377   1.081       .  S
N378        N379   1.323       .  A
N378        C382   1.347       .  A
N379        C380   1.344       .  A
C380        C381   1.380       .  A
C380        H383   1.082       .  S
C381        C382   1.385       .  A
C381       C1693   1.472       .  S
C382        H384   1.082       .  S
N385        N386   1.322       .  A
N385        C389   1.344       .  A
N385       Cu393   2.068       .  S
N386        C387   1.346       .  A
N386       Cu392   2.073       .  S
C387        C388   1.383       .  A
C387        H390   1.082       .  S
C388        C389   1.382       .  A
C388       C1725   1.471       .  S
C389        H391   1.082       .  S
Cu392       N395   2.074       .  S
Cu393       N403   2.068       .  S
Cu394       N396   2.092       .  S
Cu394       N402   2.091       .  S
N395        N396   1.324       .  A
N395        C399   1.345       .  A
N396        C397   1.349       .  A
C397        C398   1.383       .  A
C397        H400   1.082       .  S
C398        C399   1.379       .  A
C398       C1683   1.443       .  S
C399        H401   1.081       .  S
N402        N403   1.323       .  A
N402        C406   1.348       .  A
N403        C404   1.345       .  A
C404        C405   1.382       .  A
C404        H407   1.082       .  S
C405        C406   1.387       .  A
C405       C1703   1.477       .  S
C406        H408   1.082       .  S
N409        N410   1.320       .  A
N409        C413   1.343       .  A
N409       Cu417   2.071       .  S
N410        C411   1.342       .  A
N410       Cu416   2.060       .  S
C411        C412   1.387       .  A
C411        H414   1.081       .  S
C412        C413   1.389       .  A
C412       C1715   1.484       .  S
C413        H415   1.081       .  S
Cu416       N419   2.060       .  S
Cu417       N427   2.071       .  S
Cu418       N420   2.064       .  S
Cu418       N426   2.064       .  S
N419        N420   1.322       .  A
N419        C423   1.343       .  A
N420        C421   1.344       .  A
C421        C422   1.377       .  A
C421        H424   1.082       .  S
C422        C423   1.376       .  A
C422       C1681   1.429       .  S
C423        H425   1.082       .  S
N426        N427   1.322       .  A
N426        C430   1.344       .  A
N427        C428   1.343       .  A
C428        C429   1.382       .  A
C428        H431   1.082       .  S
C429        C430   1.381       .  A
C429       C1747   1.470       .  S
C430        H432   1.082       .  S
N433        N434   1.322       .  A
N433        C437   1.346       .  A
N433       Cu441   2.080       .  S
N434        C435   1.343       .  A
N434       Cu440   2.062       .  S
C435        C436   1.381       .  A
C435        H438   1.082       .  S
C436        C437   1.385       .  A
C436       C1662   1.473       .  S
C437        H439   1.082       .  S
Cu440       N443   2.061       .  S
Cu441       N451   2.080       .  S
Cu442       N444   2.068       .  S
Cu442       N450   2.068       .  S
N443        N444   1.322       .  A
N443        C447   1.343       .  A
N444        C445   1.345       .  A
C445        C446   1.379       .  A
C445        H448   1.082       .  S
C446        C447   1.377       .  A
C446       C1660   1.432   1_655  S
C447        H449   1.082   1_655  S
N450        N451   1.323       .  A
N450        C454   1.344       .  A
N451        C452   1.346       .  A
C452        C453   1.383       .  A
C452        H455   1.081       .  S
C453        C454   1.380       .  A
C453       C1672   1.470       .  S
C454        H456   1.082       .  S
N457        N458   1.321       .  A
N457        C461   1.345       .  A
N457       Cu465   2.069       .  S
N458        C459   1.343       .  A
N458       Cu464   2.060       .  S
C459        C460   1.381       .  A
C459        H462   1.082       .  S
C460        C461   1.383       .  A
C460       C1650   1.469       .  S
C461        H463   1.082       .  S
Cu464       N467   2.061       .  S
Cu465       N475   2.070       .  S
Cu466       N468   2.077       .  S
Cu466       N474   2.077       .  S
N467        N468   1.323       .  A
N467        C471   1.343       .  A
N468        C469   1.346       .  A
C469        C470   1.380       .  A
C469        H472   1.082       .  S
C470        C471   1.376       .  A
C470       C1637   1.433       .  S
C471        H473   1.082       .  S
N474        N475   1.323       .  A
N474        C478   1.347       .  A
N475        C476   1.343       .  A
C476        C477   1.382       .  A
C476        H479   1.081       .  S
C477        C478   1.384       .  A
C477       C1640   1.473       .  S
C478        H480   1.082       .  S
N481        N482   1.321       .  A
N481        C485   1.345       .  A
N481       Cu489   2.078       .  S
N482        C483   1.347       .  A
N482       Cu488   2.077       .  S
C483        C484   1.388       .  A
C483        H486   1.081       .  S
C484        C485   1.388       .  A
C484       C1628   1.487       .  S
C485        H487   1.081       .  S
Cu488       N491   2.077       .  S
Cu489       N499   2.078       .  S
Cu490       N492   2.078       .  S
Cu490       N498   2.078       .  S
N491        N492   1.324       .  A
N491        C495   1.345       .  A
N492        C493   1.346       .  A
C493        C494   1.379       .  A
C493        H496   1.082       .  S
C494        C495   1.379       .  A
C494       C1615   1.436   1_655  S
C495        H497   1.082   1_655  S
N498        N499   1.322       .  A
N498        C502   1.348       .  A
N499        C500   1.344       .  A
C500        C501   1.384       .  A
C500        H503   1.082       .  S
C501        C502   1.386       .  A
C501       C1618   1.479       .  S
C502        H504   1.082       .  S
N505        N506   1.321       .  A
N505        C509   1.346       .  A
N505       Cu513   2.075       .  S
N506        C507   1.344       .  A
N506       Cu512   2.067       .  S
C507        C508   1.384       .  A
C507        H510   1.081       .  S
C508        C509   1.386       .  A
C508       C1665   1.477       .  S
C509        H511   1.082       .  S
Cu512       N515   2.067       .  S
Cu513       N523   2.076       .  S
Cu514       N516   2.094       .  S
Cu514       N522   2.094       .  S
N515        N516   1.323       .  A
N515        C519   1.345       .  A
N516        C517   1.350       .  A
C517        C518   1.385       .  A
C517        H520   1.082       .  S
C518        C519   1.378       .  A
C518       C1613   1.443       .  S
C519        H521   1.081       .  S
N522        N523   1.324       .  A
N522        C526   1.348       .  A
N523        C524   1.346       .  A
C524        C525   1.380       .  A
C524        H527   1.082       .  S
C525        C526   1.384       .  A
C525       C1631   1.472       .  S
C526        H528   1.082       .  S
N529        N530   1.320       .  A
N529        C533   1.345       .  A
N529       Cu537   2.068       .  S
N530        C531   1.344       .  A
N530       Cu536   2.064       .  S
C531        C532   1.384       .  A
C531        H534   1.081       .  S
C532        C533   1.385       .  A
C532       C1653   1.475       .  S
C533        H535   1.082       .  S
Cu536       N539   2.065       .  S
Cu537       N547   2.069       .  S
Cu538       N540   2.097       .  S
Cu538       N546   2.097       .  S
N539        N540   1.324       .  A
N539        C543   1.344       .  A
N540        C541   1.350       .  A
C541        C542   1.385       .  A
C541        H544   1.082       .  S
C542        C543   1.377       .  A
C542       C1611   1.442       .  S
C543        H545   1.082       .  S
N546        N547   1.323       .  A
N546        C550   1.350       .  A
N547        C548   1.343       .  A
C548        C549   1.383       .  A
C548        H551   1.081       .  S
C549        C550   1.390       .  A
C549       C1621   1.483       .  S
C550        H552   1.081       .  S
N553        N554   1.322       .  A
N553        C557   1.344       .  A
N553       Cu561   2.076       .  S
N554        C555   1.345       .  A
N554       Cu560   2.069       .  S
C555        C556   1.383       .  A
C555        H558   1.082       .  S
C556        C557   1.384       .  A
C556       C1643   1.475       .  S
C557        H559   1.082       .  S
Cu560       N563   2.068       .  S
Cu561       N571   2.076       .  S
Cu562       N564   2.063       .  S
Cu562       N570   2.063       .  S
N563        N564   1.323       .  A
N563        C567   1.344       .  A
N564        C565   1.344       .  A
C565        C566   1.377       .  A
C565        H568   1.082       .  S
C566        C567   1.378       .  A
C566       C1610   1.432       .  S
C567        H569   1.082       .  S
N570        N571   1.321       .  A
N570        C574   1.343       .  A
N571        C572   1.345       .  A
C572        C573   1.386       .  A
C572        H575   1.081       .  S
C573        C574   1.383       .  A
C573       C1675   1.477       .  S
C574        H576   1.081       .  S
N577        N578   1.322       .  A
N577        C581   1.345       .  A
N577       Cu585   2.075       .  S
N578        C579   1.345       .  A
N578       Cu584   2.070       .  S
C579        C580   1.382       .  A
C579        H582   1.082       .  S
C580        C581   1.383       .  A
C580       C1590   1.472       .  S
C581        H583   1.082       .  S
Cu584       N587   2.070       .  S
Cu585       N595   2.075       .  S
Cu586       N588   2.071       .  S
Cu586       N594   2.071       .  S
N587        N588   1.323       .  A
N587        C591   1.345       .  A
N588        C589   1.345       .  A
C589        C590   1.379       .  A
C589        H592   1.082       .  S
C590        C591   1.379       .  A
C590       C1587   1.434       .  S
C591        H593   1.082       .  S
N594        N595   1.323       .  A
N594        C598   1.345       .  A
N595        C596   1.345       .  A
C596        C597   1.381       .  A
C596        H599   1.082       .  S
C597        C598   1.381       .  A
C597       C1600   1.468       .  S
C598        H600   1.082       .  S
N601        N602   1.321       .  A
N601        C605   1.344       .  A
N601       Cu609   2.066       .  S
N602        C603   1.342       .  A
N602       Cu608   2.060       .  S
C603        C604   1.382       .  A
C603        H606   1.082       .  S
C604        C605   1.384       .  A
C604       C1578   1.471       .  S
C605        H607   1.082       .  S
Cu608       N611   2.060       .  S
Cu609       N619   2.067       .  S
Cu610       N612   2.078       .  S
Cu610       N618   2.077       .  S
N611        N612   1.323       .  A
N611        C615   1.343       .  A
N612        C613   1.346       .  A
C613        C614   1.381       .  A
C613        H616   1.081       .  S
C614        C615   1.376       .  A
C614       C1565   1.434       .  S
C615        H617   1.081       .  S
N618        N619   1.323       .  A
N618        C622   1.346       .  A
N619        C620   1.343       .  A
C620        C621   1.379       .  A
C620        H623   1.082       .  S
C621        C622   1.382       .  A
C621       C1568   1.466       .  S
C622        H624   1.082       .  S
N625        N626   1.319       .  A
N625        C629   1.342       .  A
N625       Cu633   2.061       .  S
N626        C627   1.344       .  A
N626       Cu632   2.068       .  S
C627        C628   1.387       .  A
C627        H630   1.081       .  S
C628        C629   1.386       .  A
C628       C1556   1.480       .  S
C629        H631   1.081       .  S
Cu632       N635   2.069       .  S
Cu633       N643   2.061       .  S
Cu634       N636   2.081       .  S
Cu634       N642   2.079       .  S
N635        N636   1.324       .  A
N635        C639   1.344       .  A
N636        C637   1.347       .  A
C637        C638   1.380       .  A
C637        H640   1.082       .  S
C638        C639   1.377       .  A
C638       C1543   1.436       .  S
C639        H641   1.081       .  S
N642        N643   1.322       .  A
N642        C646   1.347       .  A
N643        C644   1.342       .  A
C644        C645   1.379       .  A
C644        H647   1.082       .  S
C645        C646   1.384       .  A
C645       C1546   1.468       .  S
C646        H648   1.082       .  S
N649        N650   1.322       .  A
N649        C653   1.343       .  A
N649       Cu657   2.066       .  S
N650        C651   1.345       .  A
N650       Cu656   2.067       .  S
C651        C652   1.380       .  A
C651        H654   1.082       .  S
C652        C653   1.380       .  A
C652       C1559   1.465       .  S
C653        H655   1.082       .  S
Cu656       N659   2.068       .  S
Cu657       N667   2.066       .  S
Cu658       N660   2.082       .  S
Cu658       N666   2.082       .  S
N659        N660   1.324       .  A
N659        C663   1.344       .  A
N660        C661   1.347       .  A
C661        C662   1.382       .  A
C661        H664   1.082       .  S
C662        C663   1.377       .  A
C662       C1541   1.438       .  S
C663        H665   1.081       .  S
N666        N667   1.322       .  A
N666        C670   1.346       .  A
N667        C668   1.344       .  A
C668        C669   1.382       .  A
C668        H671   1.082       .  S
C669        C670   1.385       .  A
C669       C1593   1.474       .  S
C670        H672   1.081       .  S
N673        N674   1.321       .  A
N673        C677   1.344       .  A
N673       Cu681   2.073       .  S
N674        C675   1.344       .  A
N674       Cu680   2.065       .  S
C675        C676   1.386       .  A
C675        H678   1.081       .  S
C676        C677   1.387       .  A
C676       C1571   1.481       .  S
C677        H679   1.081       .  S
Cu680       N683   2.065       .  S
Cu681       N691   2.073       .  S
Cu682       N684   2.067       .  S
Cu682       N690   2.068       .  S
N683        N684   1.323       .  A
N683        C687   1.344       .  A
N684        C685   1.344       .  A
C685        C686   1.378       .  A
C685        H688   1.082       .  S
C686        C687   1.377       .  A
C686       C1539   1.432       .  S
C687        H689   1.082       .  S
N690        N691   1.321       .  A
N690        C694   1.344       .  A
N691        C692   1.344       .  A
C692        C693   1.386       .  A
C692        H695   1.081       .  S
C693        C694   1.385       .  A
C693       C1549   1.479       .  S
C694        H696   1.081       .  S
N697        N698   1.321       .  A
N697        C701   1.345       .  A
N697       Cu705   2.071       .  S
N698        C699   1.342       .  A
N698       Cu704   2.059       .  S
C699        C700   1.381       .  A
C699        H702   1.082       .  S
C700        C701   1.384       .  A
C700       C1581   1.471       .  S
C701        H703   1.082       .  S
Cu704       N707   2.059       .  S
Cu705       N715   2.072       .  S
Cu706       N708   2.081       .  S
Cu706       N714   2.082       .  S
N707        N708   1.322       .  A
N707        C711   1.343       .  A
N708        C709   1.347       .  A
C709        C710   1.382       .  A
C709        H712   1.082       .  S
C710        C711   1.376       .  A
C710       C1537   1.436       .  S
C711        H713   1.081       .  S
N714        N715   1.323       .  A
N714        C718   1.345       .  A
N715        C716   1.344       .  A
C716        C717   1.384       .  A
C716        H719   1.081       .  S
C717        C718   1.387       .  A
C717       C1603   1.480       .  S
C718        H720   1.081       .  S
N721        N722   1.320       .  A
N721        C725   1.344       .  A
N721       Cu729   2.071       .  S
N722        C723   1.344       .  A
N722       Cu728   2.069       .  S
C723        C724   1.387       .  A
C723        H726   1.081       .  S
C724        C725   1.388       .  A
C724       C1528   1.484       .  S
C725        H727   1.081       .  S
Cu728       N731   2.069       .  S
Cu729       N739   2.071       .  S
Cu730       N732   2.074       .  S
Cu730       N738   2.073       .  S
N731        N732   1.323       .  A
N731        C735   1.345       .  A
N732        C733   1.346       .  A
C733        C734   1.380       .  A
C733        H736   1.082       .  S
C734        C735   1.378       .  A
C734       C1515   1.436       .  S
C735        H737   1.081       .  S
N738        N739   1.322       .  A
N738        C742   1.345       .  A
N739        C740   1.344       .  A
C740        C741   1.383       .  A
C740        H743   1.082       .  S
C741        C742   1.384       .  A
C741       C1521   1.475       .  S
C742        H744   1.082       .  S
N745        N746   1.322       .  A
N745        C749   1.343       .  A
N745       Cu753   2.065       .  S
N746        C747   1.345       .  A
N746       Cu752   2.068       .  S
C747        C748   1.381       .  A
C747        H750   1.082       .  S
C748        C749   1.380       .  A
C748       C1506   1.466       .  S
C749        H751   1.082       .  S
Cu752       N755   2.069       .  S
Cu753       N763   2.065       .  S
Cu754       N756   2.072       .  S
Cu754       N762   2.071       .  S
N755        N756   1.323       .  A
N755        C759   1.344       .  A
N756        C757   1.345       .  A
C757        C758   1.379       .  A
C757        H760   1.082       .  S
C758        C759   1.377       .  A
C758       C1493   1.434       .  S
C759        H761   1.082   1_655  S
N762        N763   1.321       .  A
N762        C766   1.345       .  A
N763        C764   1.343       .  A
C764        C765   1.384       .  A
C764        H767   1.081       .  S
C765        C766   1.386       .  A
C765       C1496   1.477       .  S
C766        H768   1.081       .  S
N769        N770   1.321       .  A
N769        C773   1.343       .  A
N769       Cu777   2.074       .  S
N770        C771   1.346       .  A
N770       Cu776   2.073       .  S
C771        C772   1.388       .  A
C771        H774   1.081       .  S
C772        C773   1.388       .  A
C772       C1474   1.485       .  S
C773        H775   1.081       .  S
Cu776       N779   2.074       .  S
Cu777       N787   2.075       .  S
Cu778       N780   2.082       .  S
Cu778       N786   2.082       .  S
N779        N780   1.324       .  A
N779        C783   1.345       .  A
N780        C781   1.347       .  A
C781        C782   1.380       .  A
C781        H784   1.081       .  S
C782        C783   1.378       .  A
C782       C1472   1.437   1_655  S
C783        H785   1.081   1_655  S
N786        N787   1.322       .  A
N786        C790   1.348       .  A
N787        C788   1.344       .  A
C788        C789   1.385       .  A
C788        H791   1.082       .  S
C789        C790   1.387       .  A
C789       C1484   1.482       .  S
C790        H792   1.082       .  S
N793        N794   1.321       .  A
N793        C797   1.345       .  A
N793       Cu801   2.070       .  S
N794        C795   1.344       .  A
N794       Cu800   2.066       .  S
C795        C796   1.381       .  A
C795        H798   1.082       .  S
C796        C797   1.382       .  A
C796       C1531   1.467       .  S
C797        H799   1.082       .  S
Cu800       N803   2.067       .  S
Cu801       N811   2.071       .  S
Cu802       N804   2.096       .  S
Cu802       N810   2.095       .  S
N803        N804   1.324       .  A
N803        C807   1.344       .  A
N804        C805   1.350       .  A
C805        C806   1.385       .  A
C805        H808   1.082       .  S
C806        C807   1.377       .  A
C806       C1469   1.442       .  S
C807        H809   1.082       .  S
N810        N811   1.323       .  A
N810        C814   1.350       .  A
N811        C812   1.343       .  A
C812        C813   1.383       .  A
C812        H815   1.081       .  S
C813        C814   1.389       .  A
C813       C1487   1.482       .  S
C814        H816   1.081       .  S
N817        N818   1.319       .  A
N817        C821   1.342       .  A
N817       Cu825   2.061       .  S
N818        C819   1.345       .  A
N818       Cu824   2.067       .  S
C819        C820   1.387       .  A
C819        H822   1.081       .  S
C820        C821   1.385       .  A
C820       C1509   1.479       .  S
C821        H823   1.081       .  S
Cu824       N827   2.068       .  S
Cu825       N835   2.062       .  S
Cu826       N828   2.092       .  S
Cu826       N834   2.091       .  S
N827        N828   1.325       .  A
N827        C831   1.344       .  A
N828        C829   1.349       .  A
C829        C830   1.383       .  A
C829        H832   1.082       .  S
C830        C831   1.376       .  A
C830       C1467   1.440       .  S
C831        H833   1.081       .  S
N834        N835   1.323       .  A
N834        C838   1.350       .  A
N835        C836   1.341       .  A
C836        C837   1.379       .  A
C836        H839   1.082       .  S
C837        C838   1.387       .  A
C837       C1477   1.474       .  S
C838        H840   1.082       .  S
N841        N842   1.323       .  A
N841        C845   1.346       .  A
N841       Cu849   2.082       .  S
N842        C843   1.342       .  A
N842       Cu848   2.061       .  S
C843        C844   1.380       .  A
C843        H846   1.082       .  S
C844        C845   1.385       .  A
C844       C1518   1.472       .  S
C845        H847   1.082       .  S
Cu848       N851   2.060       .  S
Cu849       N859   2.082       .  S
Cu850       N852   2.057       .  S
Cu850       N858   2.058       .  S
N851        N852   1.321       .  A
N851        C855   1.343       .  A
N852        C853   1.343       .  A
C853        C854   1.377       .  A
C853        H856   1.082       .  S
C854        C855   1.377       .  A
C854       C1465   1.429       .  S
C855        H857   1.082       .  S
N858        N859   1.323       .  A
N858        C862   1.342       .  A
N859        C860   1.346       .  A
C860        C861   1.384       .  A
C860        H863   1.082       .  S
C861        C862   1.378       .  A
C861       C1499   1.467       .  S
C862        H864   1.082       .  S
N865        N866   1.322       .  A
N865        C869   1.343       .  A
N865       Cu873   2.065       .  S
N866        C867   1.350       .  A
N866       Cu872   2.092       .  S
C867        C868   1.389       .  A
C867        H870   1.082       .  S
C868        C869   1.382       .  A
C868       C1446   1.480       .  S
C869        H871   1.082       .  S
Cu872       N875   2.094       .  S
Cu873       N883   2.064       .  S
Cu874       N876   2.086       .  S
Cu874       N882   2.084       .  S
N875        N876   1.325       .  A
N875        C879   1.349       .  A
N876        C877   1.348       .  A
C877        C878   1.381       .  A
C877        H880   1.081       .  S
C878        C879   1.383       .  A
C878       C1443   1.446       .  S
C879        H881   1.081   1_655  S
N882        N883   1.321       .  A
N882        C886   1.348       .  A
N883        C884   1.343       .  A
C884        C885   1.382       .  A
C884        H887   1.082       .  S
C885        C886   1.387       .  A
C885       C1456   1.477       .  S
C886        H888   1.082       .  S
N889        N890   1.322       .  A
N889        C893   1.346       .  A
N889       Cu897   2.079       .  S
N890        C891   1.343       .  A
N890       Cu896   2.061       .  S
C891        C892   1.381       .  A
C891        H894   1.082       .  S
C892        C893   1.385       .  A
C892       C1434   1.474       .  S
C893        H895   1.082       .  S
Cu896       N899   2.061       .  S
Cu897       N907   2.079       .  S
Cu898       N900   2.078       .  S
Cu898       N906   2.078       .  S
N899        N900   1.322       .  A
N899        C903   1.344       .  A
N900        C901   1.346       .  A
C901        C902   1.381       .  A
C901        H904   1.081   1_655  S
C902        C903   1.377       .  A
C902       C1422   1.434   1_655  S
C903        H905   1.082       .  S
N906        N907   1.323       .  A
N906        C910   1.346       .  A
N907        C908   1.346       .  A
C908        C909   1.384       .  A
C908        H911   1.082       .  S
C909        C910   1.384       .  A
C909       C1424   1.478       .  S
C910        H912   1.082       .  S
N913        N914   1.320       .  A
N913        C917   1.344       .  A
N913       Cu921   2.068       .  S
N914        C915   1.343       .  A
N914       Cu920   2.059       .  S
C915        C916   1.382       .  A
C915        H918   1.082       .  S
C916        C917   1.384       .  A
C916       C1402   1.472       .  S
C917        H919   1.081       .  S
Cu920       N923   2.060       .  S
Cu921       N931   2.069       .  S
Cu922       N924   2.078       .  S
Cu922       N930   2.078       .  S
N923        N924   1.323       .  A
N923        C927   1.343       .  A
N924        C925   1.346       .  A
C925        C926   1.380       .  A
C925        H928   1.081       .  S
C926        C927   1.375       .  A
C926       C1400   1.432       .  S
C927        H929   1.082       .  S
N930        N931   1.323       .  A
N930        C934   1.347       .  A
N931        C932   1.343       .  A
C932        C933   1.381       .  A
C932        H935   1.082       .  S
C933        C934   1.384       .  A
C933       C1412   1.473       .  S
C934        H936   1.082       .  S
N937        N938   1.321       .  A
N937        C941   1.346       .  A
N937       Cu945   2.075       .  S
N938        C939   1.344       .  A
N938       Cu944   2.066       .  S
C939        C940   1.382       .  A
C939        H942   1.082       .  S
C940        C941   1.384       .  A
C940       C1459   1.473       .  S
C941        H943   1.082       .  S
Cu944       N947   2.066       .  S
Cu945       N955   2.076       .  S
Cu946       N948   2.079       .  S
Cu946       N954   2.079       .  S
N947        N948   1.323       .  A
N947        C951   1.343       .  A
N948        C949   1.347       .  A
C949        C950   1.381       .  A
C949        H952   1.081       .  S
C950        C951   1.376       .  A
C950       C1398   1.435       .  S
C951        H953   1.081       .  S
N954        N955   1.323       .  A
N954        C958   1.347       .  A
N955        C956   1.344       .  A
C956        C957   1.384       .  A
C956        H959   1.081       .  S
C957        C958   1.385       .  A
C957       C1415   1.478       .  S
C958        H960   1.082       .  S
N961        N962   1.322       .  A
N961        C965   1.344       .  A
N961       Cu969   2.071       .  S
N962        C963   1.343       .  A
N962       Cu968   2.062       .  S
C963        C964   1.382       .  A
C963        H966   1.082       .  S
C964        C965   1.383       .  A
C964       C1405   1.471       .  S
C965        H967   1.082       .  S
Cu968       N971   2.062       .  S
Cu969       N979   2.071       .  S
Cu970       N972   2.067       .  S
Cu970       N978   2.068       .  S
N971        N972   1.322       .  A
N971        C975   1.343       .  A
N972        C973   1.344       .  A
C973        C974   1.378       .  A
C973        H976   1.081       .  S
C974        C975   1.377       .  A
C974       C1395   1.431       .  S
C975        H977   1.082       .  S
N978        N979   1.322       .  A
N978        C982   1.344       .  A
N979        C980   1.344       .  A
C980        C981   1.384       .  A
C980        H983   1.082       .  S
C981        C982   1.384       .  A
C981       C1437   1.475       .  S
C982        H984   1.082       .  S
N985        N986   1.322       .  A
N985        C989   1.345       .  A
N985       Cu993   2.076       .  S
N986        C987   1.347       .  A
N986       Cu992   2.077       .  S
C987        C988   1.385       .  A
C987        H990   1.082       .  S
C988        C989   1.385       .  A
C988       C1449   1.479       .  S
C989        H991   1.081       .  S
Cu992       N995   2.078       .  S
Cu993      N1003   2.076       .  S
Cu994       N996   2.084       .  S
Cu994      N1002   2.084       .  S
N995        N996   1.324       .  A
N995        C999   1.346       .  A
N996        C997   1.348       .  A
C997        C998   1.381       .  A
C997       H1000   1.082       .  S
C998        C999   1.379       .  A
C998       C1393   1.440       .  S
C999       H1001   1.082       .  S
N1002      N1003   1.322       .  A
N1002      C1006   1.347       .  A
N1003      C1004   1.345       .  A
C1004      C1005   1.384       .  A
C1004      H1007   1.082       .  S
C1005      C1006   1.386       .  A
C1005      C1427   1.479       .  S
C1006      H1008   1.082       .  S
N1009      N1010   1.320       .  A
N1009      C1013   1.341       .  A
N1009     Cu1017   2.061       .  S
N1010      C1011   1.348       .  A
N1010     Cu1016   2.086       .  S
C1011      C1012   1.393       .  A
C1011      H1014   1.081       .  S
C1012      C1013   1.387       .  A
C1012      C1384   1.489       .  S
C1013      H1015   1.080       .  S
Cu1016     N1019   2.088       .  S
Cu1017     N1027   2.061       .  S
Cu1018     N1020   2.089       .  S
Cu1018     N1026   2.088       .  S
N1019      N1020   1.326       .  A
N1019      C1023   1.347       .  A
N1020      C1021   1.348       .  A
C1021      C1022   1.381       .  A
C1021      H1024   1.082       .  S
C1022      C1023   1.381       .  A
C1022      C1371   1.444       .  S
C1023      H1025   1.082       .  S
N1026      N1027   1.320       .  A
N1026      C1030   1.349       .  A
N1027      C1028   1.341       .  A
C1028      C1029   1.384       .  A
C1028      H1031   1.081       .  S
C1029      C1030   1.391       .  A
C1029      C1374   1.485       .  S
C1030      H1032   1.081       .  S
N1033      N1034   1.321       .  A
N1033      C1037   1.344       .  A
N1033     Cu1041   2.070       .  S
N1034      C1035   1.343       .  A
N1034     Cu1040   2.059       .  S
C1035      C1036   1.380       .  A
C1035      H1038   1.082       .  S
C1036      C1037   1.382       .  A
C1036      C1365   1.467       .  S
C1037      H1039   1.081       .  S
Cu1040     N1043   2.059       .  S
Cu1041     N1051   2.071       .  S
Cu1042     N1044   2.078       .  S
Cu1042     N1050   2.079       .  S
N1043      N1044   1.323       .  A
N1043      C1047   1.343       .  A
N1044      C1045   1.346       .  A
C1045      C1046   1.380       .  A
C1045      H1048   1.082       .  S
C1046      C1047   1.375       .  A
C1046      C1350   1.432       .  S
C1047      H1049   1.082       .  S
N1050      N1051   1.323       .  A
N1050      C1054   1.348       .  A
N1051      C1052   1.343       .  A
C1052      C1053   1.382       .  A
C1052      H1055   1.082       .  S
C1053      C1054   1.385       .  A
C1053      C1355   1.475       .  S
C1054      H1056   1.082       .  S
N1057      N1058   1.320       .  A
N1057      C1061   1.342       .  A
N1057     Cu1065   2.065       .  S
N1058      C1059   1.345       .  A
N1058     Cu1064   2.065       .  S
C1059      C1060   1.386       .  A
C1059      H1062   1.081       .  S
C1060      C1061   1.386       .  A
C1060      C1330   1.479       .  S
C1061      H1063   1.080       .  S
Cu1064     N1067   2.066       .  S
Cu1065     N1075   2.065       .  S
Cu1066     N1068   2.079       .  S
Cu1066     N1074   2.079       .  S
N1067      N1068   1.324       .  A
N1067      C1071   1.344       .  A
N1068      C1069   1.346       .  A
C1069      C1070   1.379       .  A
C1069      H1072   1.082       .  S
C1070      C1071   1.376       .  A
C1070      C1328   1.433       .  S
C1071      H1073   1.082       .  S
N1074      N1075   1.322       .  A
N1074      C1078   1.348       .  A
N1075      C1076   1.342       .  A
C1076      C1077   1.381       .  A
C1076      H1079   1.082       .  S
C1077      C1078   1.386       .  A
C1077      C1340   1.475       .  S
C1078      H1080   1.082       .  S
N1081      N1082   1.322       .  A
N1081      C1085   1.341       .  A
N1081     Cu1089   2.059       .  S
N1082      C1083   1.347       .  A
N1082     Cu1088   2.073       .  S
C1083      C1084   1.383       .  A
C1083      H1086   1.082       .  S
C1084      C1085   1.379       .  A
C1084      C1333   1.465       .  S
C1085      H1087   1.082       .  S
Cu1088     N1091   2.074       .  S
Cu1089     N1099   2.059       .  S
Cu1090     N1092   2.070       .  S
Cu1090     N1098   2.069       .  S
N1091      N1092   1.324       .  A
N1091      C1095   1.345       .  A
N1092      C1093   1.344       .  A
C1093      C1094   1.377       .  A
C1093      H1096   1.082       .  S
C1094      C1095   1.378       .  A
C1094      C1325   1.434       .  S
C1095      H1097   1.082       .  S
N1098      N1099   1.320       .  A
N1098      C1102   1.345       .  A
N1099      C1100   1.342       .  A
C1100      C1101   1.383       .  A
C1100      H1103   1.082       .  S
C1101      C1102   1.386       .  A
C1101      C1362   1.475       .  S
C1102      H1104   1.081       .  S
N1105      N1106   1.321       .  A
N1105      C1109   1.344       .  A
N1105     Cu1113   2.068       .  S
N1106      C1107   1.347       .  A
N1106     Cu1112   2.075       .  S
C1107      C1108   1.384       .  A
C1107      H1110   1.082       .  S
C1108      C1109   1.382       .  A
C1108      C1377   1.472       .  S
C1109      H1111   1.082       .  S
Cu1112     N1115   2.076       .  S
Cu1113     N1123   2.068       .  S
Cu1114     N1116   2.086       .  S
Cu1114     N1122   2.085       .  S
N1115      N1116   1.325       .  A
N1115      C1119   1.345       .  A
N1116      C1117   1.348       .  A
C1117      C1118   1.381       .  A
C1117      H1120   1.082       .  S
C1118      C1119   1.378       .  A
C1118      C1323   1.440       .  S
C1119      H1121   1.082       .  S
N1122      N1123   1.322       .  A
N1122      C1126   1.349       .  A
N1123      C1124   1.342       .  A
C1124      C1125   1.383       .  A
C1124      H1127   1.082       .  S
C1125      C1126   1.388       .  A
C1125      C1343   1.479       .  S
C1126      H1128   1.082       .  S
N1129      N1130   1.321       .  A
N1129      C1133   1.344       .  A
N1129     Cu1137   2.070       .  S
N1130      C1131   1.346       .  A
N1130     Cu1136   2.072       .  S
C1131      C1132   1.382       .  A
C1131      H1134   1.082       .  S
C1132      C1133   1.381       .  A
C1132      C1387   1.469       .  S
C1133      H1135   1.081       .  S
Cu1136     N1139   2.073       .  S
Cu1137     N1147   2.070       .  S
Cu1138     N1140   2.086       .  S
Cu1138     N1146   2.085       .  S
N1139      N1140   1.324       .  A
N1139      C1143   1.345       .  A
N1140      C1141   1.348       .  A
C1141      C1142   1.382       .  A
C1141      H1144   1.082       .  S
C1142      C1143   1.377       .  A
C1142      C1321   1.439       .  S
C1143      H1145   1.082       .  S
N1146      N1147   1.323       .  A
N1146      C1150   1.349       .  A
N1147      C1148   1.342       .  A
C1148      C1149   1.382       .  A
C1148      H1151   1.082       .  S
C1149      C1150   1.387       .  A
C1149      C1352   1.478       .  S
C1150      H1152   1.082       .  S
O1153     Cu1161   2.014       .  S
O1153      C1163   1.277       .  A
O1154     Cu1161   2.010       .  S
O1154      C1164   1.276       .  A
O1155     Cu1161   2.010       .  S
O1155      C1165   1.276       .  A
O1156     Cu1161   2.005       .  S
O1156      C1166   1.276       .  A
O1157     Cu1162   2.009       .  S
O1157      C1166   1.276       .  A
O1158     Cu1162   2.014       .  S
O1158      C1165   1.277       .  A
O1159     Cu1162   2.015       .  S
O1159      C1164   1.277       .  A
O1160     Cu1162   2.019       .  S
O1160      C1163   1.278       .  A
Cu1161    Cu1162   2.379       .  S
C1163      C1470   1.440       .  S
C1164      C1322   1.437       .  S
C1165      C1542   1.436       .  S
C1166      C1397   1.433       .  S
O1167     Cu1175   2.015       .  S
O1167      C1177   1.277       .  A
O1168     Cu1175   2.020       .  S
O1168      C1178   1.278       .  A
O1169     Cu1175   2.008       .  S
O1169      C1179   1.276       .  A
O1170     Cu1175   2.012       .  S
O1170      C1180   1.277       .  A
O1171     Cu1176   2.007       .  S
O1171      C1180   1.276       .  A
O1172     Cu1176   2.003       .  S
O1172      C1179   1.276       .  A
O1173     Cu1176   2.016       .  S
O1173      C1178   1.277       .  A
O1174     Cu1176   2.011       .  S
O1174      C1177   1.277       .  A
Cu1175    Cu1176   2.379       .  S
C1177      C1324   1.438       .  S
C1178      C1684   1.441       .  S
C1179      C1753   1.432       .  S
C1180      C1538   1.435       .  S
O1181     Cu1189   2.009       .  S
O1181      C1191   1.276       .  A
O1182     Cu1189   2.009       .  S
O1182      C1192   1.276       .  A
O1183     Cu1189   2.006       .  S
O1183      C1193   1.276       .  A
O1184     Cu1189   2.005       .  S
O1184      C1194   1.276       .  A
O1185     Cu1190   2.000       .  S
O1185      C1194   1.275       .  A
O1186     Cu1190   2.001       .  S
O1186      C1193   1.275       .  A
O1187     Cu1190   2.004       .  S
O1187      C1192   1.276       .  A
O1188     Cu1190   2.004       .  S
O1188      C1191   1.276       .  A
Cu1189    Cu1190   2.382       .  S
C1191      C1825   1.432       .  S
C1192      C1326   1.432       .  S
C1193      C1756   1.430       .  S
C1194      C1396   1.429       .  S
O1195     Cu1203   2.013       .  S
O1195      C1205   1.277       .  A
O1196     Cu1203   2.018       .  S
O1196      C1206   1.277       .  A
O1197     Cu1203   2.006       .  S
O1197      C1207   1.276       .  A
O1198     Cu1203   2.011       .  S
O1198      C1208   1.276       .  A
O1199     Cu1204   2.016       .  S
O1199      C1208   1.277       .  A
O1200     Cu1204   2.011       .  S
O1200      C1207   1.277       .  A
O1201     Cu1204   2.020       .  S
O1201      C1206   1.278       .  A
O1202     Cu1204   2.015       .  S
O1202      C1205   1.277       .  A
Cu1203    Cu1204   2.379       .  S
C1205      C1394   1.438       .  S
C1206      C1614   1.442       .  S
C1207      C1827   1.434       .  S
C1208      C1468   1.438       .  S
O1209     Cu1217   2.001       .  S
O1209      C1219   1.275       .  A
O1210     Cu1217   2.001       .  S
O1210      C1220   1.275       .  A
O1211     Cu1217   1.998       .  S
O1211      C1221   1.275       .  A
O1212     Cu1217   1.998       .  S
O1212      C1222   1.275       .  A
O1213     Cu1218   2.001       .  S
O1213      C1222   1.276       .  A
O1214     Cu1218   2.002       .  S
O1214      C1221   1.276       .  A
O1215     Cu1218   2.005       .  S
O1215      C1220   1.276       .  A
O1216     Cu1218   2.005       .  S
O1216      C1219   1.276       .  A
Cu1217    Cu1218   2.383       .  S
C1219      C1609   1.430       .  S
C1220      C1540   1.430       .  S
C1221      C1682   1.427       .  S
C1222      C1466   1.427       .  S
O1223     Cu1231   2.014       .  S
O1223      C1233   1.277       .  A
O1224     Cu1231   2.019       .  S
O1224      C1234   1.278       .  A
O1225     Cu1231   2.010       .  S
O1225      C1235   1.277       .  A
O1226     Cu1231   2.016       .  S
O1226      C1236   1.277       .  A
O1227     Cu1232   2.012       .  S
O1227      C1236   1.276       .  A
O1228     Cu1232   2.006       .  S
O1228      C1235   1.276       .  A
O1229     Cu1232   2.016       .  S
O1229      C1234   1.277       .  A
O1230     Cu1232   2.011       .  S
O1230      C1233   1.277       .  A
Cu1231    Cu1232   2.379       .  S
C1233      C1757   1.438       .  S
C1234      C1612   1.441       .  S
C1235      C1830   1.434       .  S
C1236      C1685   1.438       .  S
O1237     Cu1245   2.010   1_565  S
O1237      C1247   1.277       .  A
O1238     Cu1245   2.009       .  S
O1238      C1248   1.276       .  A
O1239     Cu1245   2.009       .  S
O1239      C1249   1.276       .  A
O1240     Cu1245   2.011   1_565  S
O1240      C1250   1.277       .  A
O1241     Cu1246   2.002   1_565  S
O1241      C1250   1.275       .  A
O1242     Cu1246   1.999       .  S
O1242      C1249   1.275       .  A
O1243     Cu1246   2.003       .  S
O1243      C1248   1.276       .  A
O1244     Cu1246   2.004   1_565  S
O1244      C1247   1.276       .  A
Cu1245    Cu1246   2.381       .  S
C1247      C1566   1.433       .  S
C1248      C1421   1.432       .  S
C1249      C1327   1.430       .  S
C1250      C1494   1.432       .  S
O1251     Cu1259   2.004       .  S
O1251      C1261   1.276       .  A
O1252     Cu1259   2.005       .  S
O1252      C1262   1.276   1_545  A
O1253     Cu1259   2.001       .  S
O1253      C1263   1.275   1_545  A
O1254     Cu1259   2.000       .  S
O1254      C1264   1.275       .  A
O1255     Cu1260   2.007       .  S
O1255      C1264   1.276       .  A
O1256     Cu1260   2.007   1_565  S
O1256      C1263   1.276       .  A
O1257     Cu1260   2.014   1_565  S
O1257      C1262   1.277       .  A
O1258     Cu1260   2.013       .  S
O1258      C1261   1.277       .  A
Cu1259    Cu1260   2.381       .  S
C1261      C1854   1.434       .  S
C1262      C1710   1.434       .  S
C1263      C1659   1.430       .  S
C1264      C1782   1.430       .  S
O1265     Cu1273   2.003       .  S
O1265      C1275   1.276       .  A
O1266     Cu1273   2.005   1_564  S
O1266      C1276   1.276       .  A
O1267     Cu1273   2.001   1_565  S
O1267      C1277   1.275       .  A
O1268     Cu1273   1.998   1_554  S
O1268      C1278   1.275       .  A
O1269     Cu1274   2.008   1_554  S
O1269      C1278   1.276       .  A
O1270     Cu1274   2.011   1_565  S
O1270      C1277   1.277       .  A
O1271     Cu1274   2.014   1_564  S
O1271      C1276   1.277       .  A
O1272     Cu1274   2.012       .  S
O1272      C1275   1.277       .  A
Cu1273    Cu1274   2.381       .  S
C1275      C1760   1.433       .  S
C1276      C1544   1.434       .  S
C1277      C1732   1.432       .  S
C1278      C1349   1.430       .  S
O1279     Cu1287   2.024   1_554  S
O1279      C1289   1.278       .  A
O1280     Cu1287   2.024       .  S
O1280      C1290   1.278       .  A
O1281     Cu1287   2.021       .  S
O1281      C1291   1.278       .  A
O1282     Cu1287   2.021   1_554  S
O1282      C1292   1.278       .  A
O1283     Cu1288   2.015   1_554  S
O1283      C1292   1.277       .  A
O1284     Cu1288   2.015       .  S
O1284      C1291   1.277       .  A
O1285     Cu1288   2.018       .  S
O1285      C1290   1.277       .  A
O1286     Cu1288   2.018   1_554  S
O1286      C1289   1.277       .  A
Cu1287    Cu1288   2.377       .  S
C1289      C1444   1.444       .  S
C1290      C1803   1.444       .  S
C1291      C1831   1.441       .  S
C1292      C1372   1.442       .  S
O1293     Cu1301   2.009       .  S
O1293      C1303   1.276       .  A
O1294     Cu1301   2.012   1_564  S
O1294      C1304   1.277       .  A
O1295     Cu1301   2.010   1_565  S
O1295      C1305   1.277       .  A
O1296     Cu1301   2.008   1_554  S
O1296      C1306   1.276       .  A
O1297     Cu1302   1.999   1_554  S
O1297      C1306   1.275       .  A
O1298     Cu1302   2.001       .  S
O1298      C1305   1.275   1_545  A
O1299     Cu1302   2.006   1_564  S
O1299      C1304   1.276       .  A
O1300     Cu1302   2.004       .  S
O1300      C1303   1.276       .  A
Cu1301    Cu1302   2.381       .  S
C1303      C1875   1.432       .  S
C1304      C1516   1.434       .  S
C1305      C1638   1.431       .  S
C1306      C1399   1.430       .  S
O1307     Cu1315   1.999       .  S
O1307      C1317   1.275       .  A
O1308     Cu1315   1.999   1_554  S
O1308      C1318   1.275       .  A
O1309     Cu1315   1.997   1_554  S
O1309      C1319   1.275       .  A
O1310     Cu1315   1.998       .  S
O1310      C1320   1.275       .  A
O1311     Cu1316   2.017       .  S
O1311      C1320   1.278       .  A
O1312     Cu1316   2.017   1_554  S
O1312      C1319   1.277       .  A
O1313     Cu1316   2.020   1_554  S
O1313      C1318   1.278       .  A
O1314     Cu1316   2.020       .  S
O1314      C1317   1.278       .  A
Cu1315    Cu1316   2.380       .  S
C1317      C1687   1.435       .  S
C1318      C1471   1.435       .  S
C1319      C1588   1.432       .  S
C1320      C1616   1.434       .  S
C1321      C1322   1.207       .  T
C1323      C1324   1.207       .  T
C1325      C1326   1.204       .  T
C1327      C1328   1.203       .  T
C1329      C1330   1.405       .  A
C1329      C1334   1.394       .  A
C1329      H1335   1.082       .  S
C1330      C1331   1.407       .  A
C1331      C1332   1.400       .  A
C1331      H1336   1.082       .  S
C1332      C1333   1.400       .  A
C1332      H1337   1.083       .  S
C1333      C1334   1.400       .  A
C1334      H1338   1.084       .  S
C1339      C1340   1.404       .  A
C1339      C1344   1.403       .  A
C1339      H1345   1.083       .  S
C1340      C1341   1.402       .  A
C1341      C1342   1.394       .  A
C1341      H1346   1.083       .  S
C1342      C1343   1.404       .  A
C1342      H1347   1.082       .  S
C1343      C1344   1.406       .  A
C1344      H1348   1.083       .  S
C1349      C1350   1.203       .  T
C1351      C1352   1.405       .  A
C1351      C1356   1.402       .  A
C1351      H1357   1.083       .  S
C1352      C1353   1.404       .  A
C1353      C1354   1.395       .  A
C1353      H1358   1.083       .  S
C1354      C1355   1.402       .  A
C1354      H1359   1.083       .  S
C1355      C1356   1.404       .  A
C1356      H1360   1.083       .  S
C1361      C1362   1.405       .  A
C1361      C1366   1.395       .  A
C1361      H1367   1.083       .  S
C1362      C1363   1.405       .  A
C1363      C1364   1.397       .  A
C1363      H1368   1.082       .  S
C1364      C1365   1.401       .  A
C1364      H1369   1.083       .  S
C1365      C1366   1.401       .  A
C1366      H1370   1.083       .  S
C1371      C1372   1.210       .  T
C1373      C1374   1.407       .  A
C1373      C1378   1.396       .  A
C1373      H1379   1.081       .  S
C1374      C1375   1.407       .  A
C1375      C1376   1.402       .  A
C1375      H1380   1.082       .  S
C1376      C1377   1.403       .  A
C1376      H1381   1.083       .  S
C1377      C1378   1.400       .  A
C1378      H1382   1.084       .  S
C1383      C1384   1.409       .  A
C1383      C1388   1.396       .  A
C1383      H1389   1.080       .  S
C1384      C1385   1.409       .  A
C1385      C1386   1.402       .  A
C1385      H1390   1.081       .  S
C1386      C1387   1.401       .  A
C1386      H1391   1.083       .  S
C1387      C1388   1.398       .  A
C1388      H1392   1.084       .  S
C1393      C1394   1.208       .  T
C1395      C1396   1.202       .  T
C1397      C1398   1.205       .  T
C1399      C1400   1.203       .  T
C1401      C1402   1.404       .  A
C1401      C1406   1.396       .  A
C1401      H1407   1.083       .  S
C1402      C1403   1.403       .  A
C1403      C1404   1.397       .  A
C1403      H1408   1.083       .  S
C1404      C1405   1.403       .  A
C1404      H1409   1.083       .  S
C1405      C1406   1.402       .  A
C1406      H1410   1.083       .  S
C1411      C1412   1.403       .  A
C1411      C1416   1.401       .  A
C1411      H1417   1.083       .  S
C1412      C1413   1.402       .  A
C1413      C1414   1.396       .  A
C1413      H1418   1.083       .  S
C1414      C1415   1.404       .  A
C1414      H1419   1.082       .  S
C1415      C1416   1.406       .  A
C1416      H1420   1.083       .  S
C1421      C1422   1.204       .  T
C1423      C1424   1.404       .  A
C1423      C1428   1.400       .  A
C1423      H1429   1.083       .  S
C1424      C1425   1.404       .  A
C1425      C1426   1.400       .  A
C1425      H1430   1.083       .  S
C1426      C1427   1.404       .  A
C1426      H1431   1.083       .  S
C1427      C1428   1.405       .  A
C1428      H1432   1.083       .  S
C1433      C1434   1.403       .  A
C1433      C1438   1.398       .  A
C1433      H1439   1.083       .  S
C1434      C1435   1.404       .  A
C1435      C1436   1.397       .  A
C1435      H1440   1.083       .  S
C1436      C1437   1.403       .  A
C1436      H1441   1.083       .  S
C1437      C1438   1.405       .  A
C1438      H1442   1.083       .  S
C1443      C1444   1.211   1_655  T
C1445      C1446   1.405       .  A
C1445      C1450   1.397       .  A
C1445      H1451   1.083       .  S
C1446      C1447   1.405       .  A
C1447      C1448   1.403       .  A
C1447      H1452   1.083       .  S
C1448      C1449   1.405       .  A
C1448      H1453   1.083       .  S
C1449      C1450   1.403       .  A
C1450      H1454   1.083       .  S
C1455      C1456   1.405       .  A
C1455      C1460   1.398       .  A
C1455      H1461   1.083       .  S
C1456      C1457   1.405       .  A
C1457      C1458   1.400       .  A
C1457      H1462   1.083       .  S
C1458      C1459   1.403       .  A
C1458      H1463   1.083       .  S
C1459      C1460   1.403       .  A
C1460      H1464   1.083       .  S
C1465      C1466   1.201       .  T
C1467      C1468   1.207       .  T
C1469      C1470   1.209       .  T
C1471      C1472   1.206       .  T
C1473      C1474   1.405       .  A
C1473      C1478   1.395       .  A
C1473      H1479   1.082       .  S
C1474      C1475   1.409       .  A
C1475      C1476   1.402       .  A
C1475      H1480   1.082       .  S
C1476      C1477   1.402       .  A
C1476      H1481   1.083       .  S
C1477      C1478   1.402       .  A
C1478      H1482   1.083       .  S
C1483      C1484   1.406       .  A
C1483      C1488   1.403       .  A
C1483      H1489   1.083       .  S
C1484      C1485   1.404       .  A
C1485      C1486   1.397       .  A
C1485      H1490   1.083       .  S
C1486      C1487   1.405       .  A
C1486      H1491   1.083       .  S
C1487      C1488   1.405       .  A
C1488      H1492   1.083       .  S
C1493      C1494   1.204   1_655  T
C1495      C1496   1.405       .  A
C1495      C1500   1.396       .  A
C1495      H1501   1.083       .  S
C1496      C1497   1.406       .  A
C1497      C1498   1.398       .  A
C1497      H1502   1.082       .  S
C1498      C1499   1.400       .  A
C1498      H1503   1.083       .  S
C1499      C1500   1.401       .  A
C1500      H1504   1.083       .  S
C1505      C1506   1.400       .  A
C1505      C1510   1.395       .  A
C1505      H1511   1.084       .  S
C1506      C1507   1.401       .  A
C1507      C1508   1.399       .  A
C1507      H1512   1.083       .  S
C1508      C1509   1.407       .  A
C1508      H1513   1.082       .  S
C1509      C1510   1.406       .  A
C1510      H1514   1.082       .  S
C1515      C1516   1.205       .  T
C1517      C1518   1.402       .  A
C1517      C1522   1.398       .  A
C1517      H1523   1.083       .  S
C1518      C1519   1.404       .  A
C1519      C1520   1.397       .  A
C1519      H1524   1.083       .  S
C1520      C1521   1.403       .  A
C1520      H1525   1.083       .  S
C1521      C1522   1.405       .  A
C1522      H1526   1.083       .  S
C1527      C1528   1.408       .  A
C1527      C1532   1.398       .  A
C1527      H1533   1.082       .  S
C1528      C1529   1.407       .  A
C1529      C1530   1.397       .  A
C1529      H1534   1.082       .  S
C1530      C1531   1.400       .  A
C1530      H1535   1.083       .  S
C1531      C1532   1.399       .  A
C1532      H1536   1.083       .  S
C1537      C1538   1.205       .  T
C1539      C1540   1.203       .  T
C1541      C1542   1.207       .  T
C1543      C1544   1.205       .  T
C1545      C1546   1.401       .  A
C1545      C1550   1.395       .  A
C1545      H1551   1.083       .  S
C1546      C1547   1.401       .  A
C1547      C1548   1.400       .  A
C1547      H1552   1.083       .  S
C1548      C1549   1.407       .  A
C1548      H1553   1.082       .  S
C1549      C1550   1.405       .  A
C1550      H1554   1.082       .  S
C1555      C1556   1.407       .  A
C1555      C1560   1.398       .  A
C1555      H1561   1.082       .  S
C1556      C1557   1.407       .  A
C1557      C1558   1.395       .  A
C1557      H1562   1.081       .  S
C1558      C1559   1.399       .  A
C1558      H1563   1.084       .  S
C1559      C1560   1.400       .  A
C1560      H1564   1.083       .  S
C1565      C1566   1.204       .  T
C1567      C1568   1.400       .  A
C1567      C1572   1.399       .  A
C1567      H1573   1.083       .  S
C1568      C1569   1.400       .  A
C1569      C1570   1.396       .  A
C1569      H1574   1.083       .  S
C1570      C1571   1.406       .  A
C1570      H1575   1.082       .  S
C1571      C1572   1.408       .  A
C1572      H1576   1.082       .  S
C1577      C1578   1.402       .  A
C1577      C1582   1.396       .  A
C1577      H1583   1.083       .  S
C1578      C1579   1.404       .  A
C1579      C1580   1.396       .  A
C1579      H1584   1.083       .  S
C1580      C1581   1.402       .  A
C1580      H1585   1.083       .  S
C1581      C1582   1.404       .  A
C1582      H1586   1.083       .  S
C1587      C1588   1.204       .  T
C1589      C1590   1.403       .  A
C1589      C1594   1.397       .  A
C1589      H1595   1.083       .  S
C1590      C1591   1.403       .  A
C1591      C1592   1.399       .  A
C1591      H1596   1.083       .  S
C1592      C1593   1.404       .  A
C1592      H1597   1.083       .  S
C1593      C1594   1.403       .  A
C1594      H1598   1.083       .  S
C1599      C1600   1.401       .  A
C1599      C1604   1.399       .  A
C1599      H1605   1.084       .  S
C1600      C1601   1.401       .  A
C1601      C1602   1.398       .  A
C1601      H1606   1.083       .  S
C1602      C1603   1.406       .  A
C1602      H1607   1.082       .  S
C1603      C1604   1.407       .  A
C1604      H1608   1.083       .  S
C1609      C1610   1.203       .  T
C1611      C1612   1.209       .  T
C1613      C1614   1.210       .  T
C1615      C1616   1.205       .  T
C1617      C1618   1.403       .  A
C1617      C1622   1.397       .  A
C1617      H1623   1.083       .  S
C1618      C1619   1.405       .  A
C1619      C1620   1.403       .  A
C1619      H1624   1.083       .  S
C1620      C1621   1.406       .  A
C1620      H1625   1.083       .  S
C1621      C1622   1.406       .  A
C1622      H1626   1.082       .  S
C1627      C1628   1.408       .  A
C1627      C1632   1.402       .  A
C1627      H1633   1.082       .  S
C1628      C1629   1.407       .  A
C1629      C1630   1.399       .  A
C1629      H1634   1.082       .  S
C1630      C1631   1.400       .  A
C1630      H1635   1.083       .  S
C1631      C1632   1.402       .  A
C1632      H1636   1.083   1_655  S
C1637      C1638   1.204       .  T
C1639      C1640   1.403       .  A
C1639      C1644   1.400       .  A
C1639      H1645   1.083       .  S
C1640      C1641   1.403       .  A
C1641      C1642   1.396       .  A
C1641      H1646   1.083       .  S
C1642      C1643   1.403       .  A
C1642      H1647   1.083       .  S
C1643      C1644   1.405       .  A
C1644      H1648   1.083       .  S
C1649      C1650   1.401       .  A
C1649      C1654   1.397       .  A
C1649      H1655   1.083       .  S
C1650      C1651   1.403       .  A
C1651      C1652   1.397       .  A
C1651      H1656   1.083       .  S
C1652      C1653   1.404       .  A
C1652      H1657   1.083       .  S
C1653      C1654   1.405       .  A
C1654      H1658   1.083       .  S
C1659      C1660   1.203       .  T
C1661      C1662   1.404       .  A
C1661      C1666   1.398       .  A
C1661      H1667   1.083       .  S
C1662      C1663   1.402       .  A
C1663      C1664   1.398       .  A
C1663      H1668   1.083       .  S
C1664      C1665   1.406       .  A
C1664      H1669   1.082       .  S
C1665      C1666   1.404       .  A
C1666      H1670   1.083       .  S
C1671      C1672   1.401       .  A
C1671      C1676   1.397       .  A
C1671      H1677   1.083       .  S
C1672      C1673   1.403       .  A
C1673      C1674   1.398       .  A
C1673      H1678   1.083       .  S
C1674      C1675   1.404       .  A
C1674      H1679   1.083       .  S
C1675      C1676   1.406       .  A
C1676      H1680   1.082       .  S
C1681      C1682   1.201       .  T
C1683      C1684   1.209       .  T
C1685      C1686   1.207       .  T
C1687      C1688   1.206       .  T
C1689      C1690   1.405       .  A
C1689      C1694   1.398       .  A
C1689      H1695   1.083       .  S
C1690      C1691   1.405       .  A
C1691      C1692   1.400       .  A
C1691      H1696   1.083       .  S
C1692      C1693   1.403       .  A
C1692      H1697   1.083       .  S
C1693      C1694   1.402       .  A
C1694      H1698   1.083       .  S
C1699      C1700   1.404       .  A
C1699      C1704   1.398       .  A
C1699      H1705   1.083       .  S
C1700      C1701   1.404       .  A
C1701      C1702   1.401       .  A
C1701      H1706   1.083       .  S
C1702      C1703   1.405       .  A
C1702      H1707   1.083       .  S
C1703      C1704   1.403       .  A
C1704      H1708   1.083       .  S
C1709      C1710   1.205       .  T
C1711      C1712   1.398       .  A
C1711      C1716   1.397       .  A
C1711      H1717   1.083       .  S
C1712      C1713   1.399       .  A
C1713      C1714   1.396       .  A
C1713      H1718   1.083       .  S
C1714      C1715   1.408       .  A
C1714      H1719   1.081       .  S
C1715      C1716   1.409       .  A
C1716      H1720   1.081       .  S
C1721      C1722   1.405       .  A
C1721      C1726   1.400       .  A
C1721      H1727   1.083       .  S
C1722      C1723   1.405       .  A
C1723      C1724   1.396       .  A
C1723      H1728   1.082       .  S
C1724      C1725   1.401       .  A
C1724      H1729   1.083       .  S
C1725      C1726   1.403       .  A
C1726      H1730   1.083       .  S
C1731      C1732   1.204       .  T
C1733      C1734   1.403       .  A
C1733      C1738   1.394       .  A
C1733      H1739   1.083       .  S
C1734      C1735   1.403       .  A
C1735      C1736   1.399       .  A
C1735      H1740   1.083       .  S
C1736      C1737   1.404       .  A
C1736      H1741   1.083       .  S
C1737      C1738   1.403       .  A
C1738      H1742   1.083       .  S
C1743      C1744   1.404       .  A
C1743      C1748   1.399       .  A
C1743      H1749   1.083       .  S
C1744      C1745   1.404       .  A
C1745      C1746   1.394       .  A
C1745      H1750   1.082       .  S
C1746      C1747   1.401       .  A
C1746      H1751   1.083       .  S
C1747      C1748   1.403       .  A
C1748      H1752   1.083       .  S
C1753      C1754   1.204       .  T
C1755      C1756   1.203       .  T
C1757      C1758   1.207       .  T
C1759      C1760   1.205       .  T
C1761      C1762   1.402       .  A
C1761      C1766   1.396       .  A
C1761      H1767   1.083       .  S
C1762      C1763   1.404       .  A
C1763      C1764   1.403       .  A
C1763      H1768   1.083       .  S
C1764      C1765   1.406       .  A
C1764      H1769   1.083       .  S
C1765      C1766   1.404       .  A
C1766      H1770   1.083       .  S
C1771      C1772   1.406       .  A
C1771      C1776   1.397       .  A
C1771      H1777   1.082       .  S
C1772      C1773   1.405       .  A
C1773      C1774   1.396       .  A
C1773      H1778   1.082       .  S
C1774      C1775   1.401       .  A
C1774      H1779   1.083       .  S
C1775      C1776   1.400       .  A
C1776      H1780   1.083       .  S
C1781      C1782   1.203       .  T
C1783      C1784   1.403       .  A
C1783      C1788   1.394       .  A
C1783      H1789   1.083       .  S
C1784      C1785   1.405       .  A
C1785      C1786   1.402       .  A
C1785      H1790   1.083       .  S
C1786      C1787   1.404       .  A
C1786      H1791   1.083       .  S
C1787      C1788   1.402       .  A
C1788      H1792   1.083       .  S
C1793      C1794   1.404       .  A
C1793      C1798   1.393       .  A
C1793      H1799   1.082       .  S
C1794      C1795   1.406       .  A
C1795      C1796   1.399       .  A
C1795      H1800   1.082       .  S
C1796      C1797   1.401       .  A
C1796      H1801   1.083       .  S
C1797      C1798   1.400       .  A
C1798      H1802   1.083       .  S
C1803      C1804   1.211       .  T
C1805      C1806   1.406       .  A
C1805      C1810   1.398       .  A
C1805      H1811   1.083       .  S
C1806      C1807   1.405       .  A
C1807      C1808   1.401       .  A
C1807      H1812   1.083       .  S
C1808      C1809   1.403       .  A
C1808      H1813   1.083       .  S
C1809      C1810   1.402       .  A
C1810      H1814   1.083       .  S
C1815      C1816   1.400       .  A
C1815      C1820   1.398       .  A
C1815      H1821   1.083       .  S
C1816      C1817   1.399       .  A
C1817      C1818   1.399       .  A
C1817      H1822   1.083       .  S
C1818      C1819   1.409       .  A
C1818      H1823   1.081       .  S
C1819      C1820   1.408       .  A
C1820      H1824   1.081       .  S
C1825      C1826   1.204       .  T
C1827      C1828   1.205       .  T
C1829      C1830   1.205       .  T
C1831      C1832   1.209   1_455  T
C1833      C1834   1.404       .  A
C1833      C1838   1.400       .  A
C1833      H1839   1.083       .  S
C1834      C1835   1.403       .  A
C1835      C1836   1.398       .  A
C1835      H1840   1.083       .  S
C1836      C1837   1.404       .  A
C1836      H1841   1.083       .  S
C1837      C1838   1.404       .  A
C1838      H1842   1.083       .  S
C1843      C1844   1.403       .  A
C1843      C1848   1.398       .  A
C1843      H1849   1.083       .  S
C1844      C1845   1.404       .  A
C1845      C1846   1.400       .  A
C1845      H1850   1.083       .  S
C1846      C1847   1.404       .  A
C1846      H1851   1.083       .  S
C1847      C1848   1.404       .  A
C1848      H1852   1.083       .  S
C1853      C1854   1.205       .  T
C1855      C1856   1.407       .  A
C1855      C1860   1.402       .  A
C1855      H1861   1.083       .  S
C1856      C1857   1.405       .  A
C1857      C1858   1.395       .  A
C1857      H1862   1.082       .  S
C1858      C1859   1.401       .  A
C1858      H1863   1.083       .  S
C1859      C1860   1.403       .  A
C1860      H1864   1.083       .  S
C1865      C1866   1.399       .  A
C1865      C1870   1.394       .  A
C1865      H1871   1.083       .  S
C1866      C1867   1.402       .  A
C1867      C1868   1.401       .  A
C1867      H1872   1.083       .  S
C1868      C1869   1.407       .  A
C1868      H1873   1.082       .  S
C1869      C1870   1.406       .  A
C1870      H1874   1.082       .  S
C1875      C1876   1.204       .  T
C1877      C1878   1.405       .  A
C1877      C1882   1.402       .  A
C1877      H1883   1.083       .  S
C1878      C1879   1.404       .  A
C1879      C1880   1.396       .  A
C1879      H1884   1.083       .  S
C1880      C1881   1.402       .  A
C1880      H1885   1.083       .  S
C1881      C1882   1.404       .  A
C1882      H1886   1.083       .  S
C1887      C1888   1.403       .  A
C1887      C1892   1.398       .  A
C1887      H1893   1.083       .  S
C1888      C1889   1.403       .  A
C1889      C1890   1.396       .  A
C1889      H1894   1.083       .  S
C1890      C1891   1.403       .  A
C1890      H1895   1.083       .  S
C1891      C1892   1.404       .  A
C1892      H1896   1.083       .  S
