geometry optimzed in LAMMPS
_audit_creation_date              2020-11-30 
_audit_creation_method            'lammps2cif' 
_symmetry_space_group_name_H-M    'P1' 
_symmetry_Int_Tables_number       1 
_symmetry_cell_setting            triclinic 
loop_ 
_symmetry_equiv_pos_as_xyz 
  x,y,z 
_cell_length_a                    49.32959191 
_cell_length_b                    49.15837567547069 
_cell_length_c                    49.51042560472386 
_cell_angle_alpha                 89.88340877192205 
_cell_angle_beta                  90.52268178659016 
_cell_angle_gamma                 88.9221635577092 
loop_ 
_atom_site_label 
_atom_site_type_symbol 
_atom_site_fract_x 
_atom_site_fract_y 
_atom_site_fract_z 
_atom_site_charge 
N1          N  0.61378793  0.16260258  0.26624086    -0.00700
C2          C  0.63038759  0.14764785  0.25016324    -0.11500
C3          C  0.61853500  0.12315040  0.24463714    -0.07100
C4          C  0.59422458  0.12341122  0.25857825    -0.07700
C5          C  0.59174834  0.14794065  0.27206742    -0.11600
N6          N  0.34264247  0.12571953  0.26286764    -0.00700
C7          C  0.32376415  0.11230666  0.24852145    -0.11500
C8          C  0.33228196  0.08527918  0.24476628    -0.07100
C9          C  0.35782512  0.08315307  0.25754774    -0.07700
C10         C  0.36302846  0.10827972  0.26883071    -0.11600
C11         C  0.51296609  0.17978292  0.35693071     0.30900
C12         C  0.47460438  0.19637771  0.39413714     0.30900
C13         C  0.51864703  0.17090669  0.38673445    -0.05300
C14         C  0.50926374  0.21055734  0.36034848    -0.06100
C15         C  0.48397103  0.17028098  0.35213950    -0.06000
C16         C  0.49810823  0.17845659  0.40555522    -0.05300
C17         C  0.49088545  0.21899245  0.37987389    -0.06100
C18         C  0.46437850  0.17898961  0.37034904    -0.06000
C19         C  0.51075486  0.18243536  0.43000040    -0.31400
N20         N  0.53790467  0.17999789  0.42725387     0.15100
C21         C  0.54280323  0.17363385  0.40108517    -0.31400
H22         H  0.56237537  0.17603255  0.39178366     0.17100
C23         C  0.49793032  0.24535005  0.38606599    -0.30400
N24         N  0.51655513  0.25443329  0.36829435     0.13800
C25         C  0.52418997  0.23271929  0.35298504    -0.30400
C26         C  0.44003459  0.16873836  0.36120464    -0.30600
N27         N  0.44458267  0.15335857  0.33860364     0.14400
H28         H  0.42048503  0.17304077  0.37005298     0.17000
C29         C  0.47152662  0.15432072  0.33320885    -0.30700
H30         H  0.48158311  0.14410590  0.31664569     0.17000
H31         H  0.53915917  0.23261979  0.33726361     0.17000
H32         H  0.50080054  0.19105860  0.44745673     0.17100
H33         H  0.49079642  0.25694004  0.40316241     0.17000
N34         N  0.38572007  0.82262624  0.28264355    -0.00700
C35         C  0.37062770  0.83536974  0.26327696    -0.11500
C36         C  0.38586997  0.85377631  0.24960295    -0.07100
C37         C  0.41167229  0.85174895  0.26146510    -0.07700
C38         C  0.41141749  0.83193281  0.28194971    -0.11600
N39         N  0.66482790  0.86216188  0.25584902    -0.00700
C40         C  0.67987129  0.87602965  0.23785731    -0.11500
C41         C  0.66610791  0.90001209  0.22927102    -0.07100
C42         C  0.64115320  0.89911382  0.24320152    -0.07700
C43         C  0.64108207  0.87544283  0.25918387    -0.11600
C44         C  0.72737074  0.02833505  0.12322302     0.30900
C45         C  0.70794415  0.98486171  0.15349249     0.30900
C46         C  0.71475260  0.00473711  0.10788572    -0.05300
C47         C  0.74852424  0.01345026  0.14201638    -0.06100
C48         C  0.70460339  0.03519583  0.14367609    -0.06000
C49         C  0.70553902  0.98267556  0.12274912    -0.05300
C50         C  0.73819110  0.99159049  0.15748850    -0.06100
C51         C  0.69496770  0.01302095  0.15874190    -0.06000
C52         C  0.70363720  0.96142913  0.10488589    -0.31400
N53         N  0.70968816  0.97049014  0.07964011     0.15100
C54         C  0.71622811  0.99701046  0.08148909    -0.31400
H55         H  0.72400784  0.00926193  0.06524418     0.17100
C56         C  0.75322831  0.99074281  0.18099800    -0.30400
N57         N  0.77337092  0.00855435  0.17997719     0.13800
C58         C  0.77014003  0.02361275  0.15720493    -0.30400
C59         C  0.67761253  0.02314009  0.17781370    -0.30600
N60         N  0.67603551  0.05046882  0.17492218     0.14400
H61         H  0.66777185  0.01169433  0.19351793     0.17000
C62         C  0.69252000  0.05825557  0.15450744    -0.30700
H63         H  0.69629731  0.07911403  0.14886216     0.17000
H64         H  0.78075587  0.04229249  0.15350799     0.17000
H65         H  0.70111205  0.94036887  0.11052960     0.17100
H66         H  0.74810296  0.98059234  0.19956721     0.17000
C67         C  0.54787956  0.76579359  0.38248972     0.30900
C68         C  0.50385182  0.78643058  0.35139682     0.30900
C69         C  0.55424231  0.78946112  0.36243347    -0.05300
C70         C  0.53336514  0.74548708  0.36271253    -0.06100
C71         C  0.52390839  0.77892270  0.39762060    -0.06000
C72         C  0.53184805  0.79977247  0.34723762    -0.05300
C73         C  0.51122890  0.75605302  0.34761926    -0.06100
C74         C  0.50100437  0.78778790  0.38267422    -0.06000
C75         C  0.54153813  0.81864834  0.32921691    -0.31400
N76         N  0.56885300  0.81997785  0.33198103     0.15100
C77         C  0.57692430  0.80207709  0.35180129    -0.31400
H78         H  0.59786681  0.79749555  0.35695942     0.17100
C79         C  0.50259494  0.73587100  0.33039348    -0.30400
N80         N  0.51886126  0.71344343  0.33339500     0.13800
C81         C  0.53790327  0.71918742  0.35277189    -0.30400
C82         C  0.47957757  0.78521123  0.40074865    -0.30600
N83         N  0.48954530  0.77925202  0.42582842     0.14400
H84         H  0.45828503  0.78423371  0.39552006     0.17000
C85         C  0.51658326  0.77628424  0.42404421    -0.30700
H86         H  0.52939303  0.76881558  0.44039044     0.17000
H87         H  0.55450275  0.70564343  0.35857710     0.17000
H88         H  0.52975618  0.82952972  0.31398794     0.17100
H89         H  0.48603016  0.73764593  0.31597975     0.17000
C90         C  0.28759075  0.00132245  0.17406857     0.30900
C91         C  0.27137910  0.96299138  0.13698999     0.30900
C92         C  0.30100914  0.97234214  0.17699993    -0.05300
C93         C  0.25721775  0.99480409  0.17376009    -0.06100
C94         C  0.29365232  0.00769713  0.14408383    -0.06000
C95         C  0.29236788  0.95230795  0.15862600    -0.05300
C96         C  0.24893530  0.97554337  0.15510299    -0.06100
C97         C  0.28652599  0.98766155  0.12613775    -0.06000
C98         C  0.30632244  0.92833359  0.16603969    -0.31400
N99         N  0.32338253  0.93348909  0.18727530     0.15100
C100        C  0.32113082  0.96043306  0.19289654    -0.31400
H101        H  0.33403198  0.97062985  0.20723841     0.17100
C102        C  0.22181333  0.97059235  0.16027324    -0.30400
N103        N  0.21346348  0.98650242  0.18125567     0.13800
C104        C  0.23511894  0.00106433  0.18980190    -0.30400
C105        C  0.29315326  0.99615042  0.10067539    -0.30600
N106        N  0.30097773  0.02238569  0.10144690     0.14400
H107        H  0.29055510  0.98423513  0.08258114     0.17000
C108        C  0.30241707  0.02923632  0.12822623    -0.30700
H109        H  0.30736435  0.04903340  0.13580209     0.17000
H110        H  0.23502743  0.01464827  0.20698064     0.17000
H111        H  0.30385675  0.90840095  0.15735634     0.17100
H112        H  0.20939327  0.95574033  0.15016452     0.17000
N113        N  0.14926957  0.26260187  0.66080040    -0.00700
C114        C  0.13141839  0.25010878  0.64485252    -0.11500
C115        C  0.12937465  0.26328509  0.62015276    -0.07100
C116        C  0.14740173  0.28450199  0.62132308    -0.07700
C117        C  0.16010031  0.28265678  0.64624348    -0.11600
N118        N  0.16157797  0.28275347  0.36651967    -0.00700
C119        C  0.14501414  0.26642914  0.35194174    -0.11500
C120        C  0.12540315  0.25595170  0.36804416    -0.07100
C121        C  0.12901366  0.26823462  0.39346979    -0.07700
C122        C  0.15196845  0.28534316  0.39220975    -0.11600
C123        C  0.22763135  0.40327645  0.50622135     0.30900
C124        C  0.20415779  0.36451264  0.47133154     0.30900
C125        C  0.21216370  0.41363871  0.48105373    -0.05300
C126        C  0.24716791  0.38133818  0.49381476    -0.06100
C127        C  0.20591347  0.38478687  0.51831172    -0.06000
C128        C  0.19997925  0.39465314  0.46411892    -0.05300
C129        C  0.23533198  0.36238775  0.47585017    -0.06100
C130        C  0.19370976  0.36578590  0.50074394    -0.06000
C131        C  0.18519371  0.40908886  0.44517287    -0.31400
N132        N  0.18974623  0.43610621  0.44835598     0.15100
C133        C  0.20556317  0.43867619  0.47099083    -0.31400
H134        H  0.21368007  0.45727280  0.47899499     0.17100
C135        C  0.25321180  0.34050985  0.47392021    -0.30400
N136        N  0.27528929  0.34455681  0.49004822     0.13800
C137        C  0.27079079  0.36851925  0.50330508    -0.30400
C138        C  0.17417949  0.35310997  0.51547695    -0.30600
N139        N  0.17561111  0.36185076  0.54132133     0.14400
H140        H  0.16087825  0.33721616  0.50886419     0.17000
C141        C  0.19469984  0.38127485  0.54330190    -0.30700
H142        H  0.20150545  0.39039690  0.56199372     0.17000
H143        H  0.28238043  0.37496475  0.52067958     0.17000
H144        H  0.17259596  0.40003128  0.42997998     0.17100
H145        H  0.24936045  0.32215328  0.46263144     0.17000
N146        N  0.85878353  0.24959126  0.36935079    -0.00700
C147        C  0.87487962  0.23183893  0.35538322    -0.11500
C148        C  0.89884812  0.22497412  0.36914412    -0.07100
C149        C  0.89555819  0.24025829  0.39360038    -0.07700
C150        C  0.87066760  0.25516896  0.39329703    -0.11600
N151        N  0.89925131  0.23189600  0.68211360    -0.00700
C152        C  0.88444592  0.24791676  0.66488998    -0.11500
C153        C  0.89590706  0.24889931  0.63931023    -0.07100
C154        C  0.91881326  0.23183893  0.64157795    -0.07700
C155        C  0.92047169  0.22181671  0.66799641    -0.11600
C156        C  0.04861638  0.11570771  0.73066830     0.30900
C157        C  0.00465840  0.14762136  0.71470757     0.30900
C158        C  0.02157001  0.10166563  0.72815849    -0.05300
C159        C  0.04160397  0.14015732  0.74928726    -0.06100
C160        C  0.05102918  0.12961672  0.70318891    -0.06000
C161        C  0.99894935  0.11742380  0.72062715    -0.05300
C162        C  0.01889755  0.15597853  0.74149893    -0.06100
C163        C  0.02849344  0.14569656  0.69483224    -0.06000
C164        C  0.97673351  0.10100678  0.72424388    -0.31400
N165        N  0.98587735  0.07621450  0.73316477     0.15100
C166        C  0.01315508  0.07646396  0.73520201    -0.31400
H167        H  0.02583325  0.05980194  0.74264026     0.17100
C168        C  0.01343499  0.17340826  0.76280325    -0.30400
N169        N  0.03315132  0.17038508  0.78185150     0.13800
C170        C  0.05042958  0.15019234  0.77389298    -0.30400
C171        C  0.03851539  0.16574425  0.67849804    -0.30600
N172        N  0.06568924  0.16246101  0.67668572     0.14400
H173        H  0.02753311  0.18401474  0.67224807     0.17000
C174        C  0.07355216  0.14110141  0.69209234    -0.30700
H175        H  0.09432636  0.13695343  0.69833184     0.17000
H176        H  0.06784125  0.14321252  0.78557431     0.17000
H177        H  0.95560676  0.10696645  0.72193618     0.17100
H178        H  0.99562202  0.18625959  0.76535262     0.17000
C179        C  0.82418729  0.33123327  0.47954789     0.30900
C180        C  0.80582810  0.36881936  0.51840722     0.30900
C181        C  0.82636848  0.36213587  0.47246512    -0.05300
C182        C  0.79365361  0.33035279  0.48648358    -0.06100
C183        C  0.83737633  0.32921416  0.50849894    -0.06000
C184        C  0.81881204  0.38052200  0.49294494    -0.05300
C185        C  0.78420803  0.34912377  0.50604466    -0.06100
C186        C  0.82780244  0.34785003  0.52804366    -0.06000
C187        C  0.81267537  0.40520521  0.48107373    -0.31400
N188        N  0.81336731  0.40285277  0.45399390     0.15100
C189        C  0.82012197  0.37647311  0.44859727    -0.31400
H190        H  0.81705641  0.36734398  0.42897709     0.17100
C191        C  0.75749553  0.34210262  0.51110423    -0.30400
N192        N  0.75030885  0.32117610  0.49467053     0.13800
C193        C  0.77222092  0.31382378  0.47972964    -0.30400
C194        C  0.83618684  0.33776881  0.55312649    -0.30600
N195        N  0.85130113  0.31455024  0.54973749     0.14400
H196        H  0.83044759  0.34601308  0.57254848     0.17000
C197        C  0.85195133  0.30912503  0.52273548    -0.30700
H198        H  0.86111450  0.29097122  0.51419762     0.17000
H199        H  0.77281369  0.29687500  0.46582469     0.17000
H200        H  0.80487769  0.42282997  0.49164900     0.17100
H201        H  0.74458076  0.35042032  0.52669014     0.17000
C202        C  0.98422954  0.14939639  0.31859524     0.30900
C203        C  0.02073208  0.11162180  0.29541384     0.30900
C204        C  0.97853288  0.11919615  0.32289942    -0.05300
C205        C  0.98763912  0.15104921  0.28742904    -0.06100
C206        C  0.01440659  0.15106138  0.32788466    -0.06000
C207        C  0.99662520  0.10068714  0.31130745    -0.05300
C208        C  0.00644625  0.13260370  0.27577606    -0.06100
C209        C  0.03335582  0.13190049  0.31655053    -0.06000
C210        C  0.98442441  0.07575331  0.31146927    -0.31400
N211        N  0.95918667  0.07859498  0.32174584     0.15100
C212        C  0.95567940  0.10483035  0.32955104    -0.31400
H213        H  0.93673166  0.11332229  0.33679628     0.17100
C214        C  0.01422738  0.14506115  0.25182488    -0.30400
N215        N  0.99890735  0.16803634  0.24673277     0.13800
C216        C  0.98306209  0.17189433  0.26894149    -0.30400
C217        C  0.05850427  0.14501663  0.31770597    -0.30600
N218        N  0.05546587  0.17018696  0.32918351     0.14400
H219        H  0.07710105  0.13763099  0.30863756     0.17000
C220        C  0.02887679  0.17398917  0.33413515    -0.30700
H221        H  0.02040649  0.19360077  0.33939528     0.17000
H222        H  0.96921326  0.18872708  0.27225024     0.17000
H223        H  0.99237501  0.05735715  0.30227180     0.17100
H224        H  0.03098250  0.13819513  0.23948510     0.17000
N225        N  0.25861144  0.66167302  0.15378756    -0.00700
C226        C  0.27560460  0.64397394  0.16656148    -0.11500
C227        C  0.27892293  0.62063372  0.15079759    -0.07100
C228        C  0.26216546  0.62429139  0.12813198    -0.07700
C229        C  0.24995547  0.64985393  0.13080313    -0.11600
N230        N  0.25941444  0.34298893  0.13953129    -0.00700
C231        C  0.27932162  0.35620317  0.15328314    -0.11500
C232        C  0.28695927  0.38027470  0.14040067    -0.07100
C233        C  0.27002852  0.38044762  0.11705959    -0.07700
C234        C  0.25340880  0.35728893  0.11682403    -0.11600
C235        C  0.40698025  0.49745555  0.20927489     0.30900
C236        C  0.37148906  0.45924053  0.18568015     0.30900
C237        C  0.42002376  0.47141791  0.19716837    -0.05300
C238        C  0.38458388  0.48526807  0.22790765    -0.06100
C239        C  0.38884587  0.50759023  0.18565232    -0.06000
C240        C  0.40217308  0.45141946  0.18650723    -0.05300
C241        C  0.36745656  0.46577811  0.21577028    -0.06100
C242        C  0.37100098  0.48847476  0.17357027    -0.06000
C243        C  0.41372640  0.42663675  0.19481218    -0.31400
N244        N  0.43804340  0.43054192  0.20683808     0.15100
C245        C  0.44185812  0.45754873  0.20827269    -0.31400
H246        H  0.45654965  0.46650530  0.22171178     0.17100
C247        C  0.34751911  0.45970936  0.23367625    -0.30400
N248        N  0.35035122  0.47553923  0.25574571     0.13800
C249        C  0.37264023  0.49130702  0.25259259    -0.30400
C250        C  0.34880617  0.50370729  0.16423579    -0.30600
N251        N  0.35234696  0.53028672  0.17003138     0.14400
H252        H  0.33011297  0.49571829  0.15622836     0.17000
C253        C  0.37602759  0.53275905  0.18347458    -0.30700
H254        H  0.38212104  0.55118486  0.19361472     0.17000
H255        H  0.37863701  0.50715537  0.26642263     0.17000
H256        H  0.40293355  0.40773003  0.19631460     0.17100
H257        H  0.33108789  0.44579719  0.23041422     0.17000
N258        N  0.26883418  0.36415654  0.85582198    -0.00700
C259        C  0.28345864  0.37943587  0.83851613    -0.11500
C260        C  0.28899094  0.40479204  0.85014202    -0.07100
C261        C  0.27710314  0.40377992  0.87597193    -0.07700
C262        C  0.26459856  0.37873835  0.87845928    -0.11600
N263        N  0.26674357  0.65748254  0.86494434    -0.00700
C264        C  0.24961747  0.67422250  0.87885702    -0.11500
C265        C  0.24308357  0.66284097  0.90390829    -0.07100
C266        C  0.25820232  0.63798227  0.90405249    -0.07700
C267        C  0.27274563  0.63539514  0.87992009    -0.11600
C268        C  0.11861258  0.72867883  0.01598313     0.30900
C269        C  0.15907253  0.71164672  0.97987214     0.30900
C270        C  0.11079922  0.70710053  0.99507934    -0.05300
C271        C  0.13162243  0.75130265  0.99822047    -0.06100
C272        C  0.14433767  0.71547895  0.02844794    -0.06000
C273        C  0.13066105  0.69942521  0.97617826    -0.05300
C274        C  0.15153545  0.74267055  0.97946827    -0.06100
C275        C  0.16441106  0.70675248  0.01022521    -0.06000
C276        C  0.11636055  0.69480475  0.95258429    -0.31400
N277        N  0.08928916  0.69607279  0.95709261     0.15100
C278        C  0.08594228  0.70344709  0.98317853    -0.31400
H279        H  0.06691365  0.70957386  0.99216347     0.17100
C280        C  0.16617706  0.76549458  0.97284718    -0.30400
N281        N  0.15802125  0.78738241  0.98792242     0.13800
C282        C  0.13764564  0.77816365  0.00394451    -0.30400
C283        C  0.18513146  0.69518715  0.02520512    -0.30600
N284        N  0.17847346  0.69682452  0.05165223     0.14400
H285        H  0.20370703  0.68615864  0.01755366     0.17000
C286        C  0.15380455  0.70918629  0.05400323    -0.30700
H287        H  0.14367994  0.71327534  0.07290343     0.17000
H288        H  0.12926416  0.78912734  0.02090170     0.17000
H289        H  0.12529981  0.69508505  0.93272260     0.17100
H290        H  0.18233299  0.76503796  0.95857405     0.17000
C291        C  0.35963668  0.48656236  0.79831788     0.30900
C292        C  0.39900616  0.52283825  0.78230049     0.30900
C293        C  0.38895013  0.47558529  0.79808706    -0.05300
C294        C  0.35676469  0.49755672  0.76864320    -0.06100
C295        C  0.36139269  0.51342556  0.81465712    -0.06000
C296        C  0.40844809  0.49392615  0.79095257    -0.05300
C297        C  0.37623862  0.51650362  0.76072742    -0.06100
C298        C  0.38093932  0.53239033  0.80684662    -0.06000
C299        C  0.43255951  0.47937292  0.78851963    -0.31400
N300        N  0.42814041  0.45238959  0.79189441     0.15100
C301        C  0.40135102  0.44989938  0.79788540    -0.31400
H302        H  0.39116695  0.43076448  0.80041496     0.17100
C303        C  0.36931445  0.52421390  0.73428936    -0.30400
N304        N  0.34820159  0.50901434  0.72474018     0.13800
C305        C  0.34093219  0.49266770  0.74576117    -0.30400
C306        C  0.37019963  0.55771482  0.81584849    -0.30600
N307        N  0.34638425  0.55429284  0.82966802     0.14400
H308        H  0.37821357  0.57738898  0.81074126     0.17000
C309        C  0.34119252  0.52729638  0.82855348    -0.30700
H310        H  0.32282824  0.51821592  0.83584092     0.17000
H311        H  0.32615693  0.47697599  0.74378868     0.17000
H312        H  0.45191298  0.48801268  0.78379257     0.17100
H313        H  0.37923457  0.54005874  0.72328002     0.17000
C314        C  0.14326081  0.29386505  0.99038290     0.30900
C315        C  0.17569117  0.31291034  0.03263489     0.30900
C316        C  0.12841314  0.30370961  0.01572753    -0.05300
C317        C  0.16396134  0.27296884  0.00326213    -0.06100
C318        C  0.16127255  0.31804003  0.98372722    -0.06000
C319        C  0.14423410  0.31198511  0.03802742    -0.05300
C320        C  0.18073306  0.28302998  0.02405375    -0.06100
C321        C  0.17779898  0.32768019  0.00480748    -0.06000
C322        C  0.12884101  0.30375657  0.06050642    -0.31400
N323        N  0.10449014  0.29355048  0.05219997     0.15100
C324        C  0.10443016  0.29391894  0.02510698    -0.31400
H325        H  0.08875395  0.28506709  0.01275216     0.17100
C326        C  0.19760245  0.26190215  0.03250035    -0.30400
N327        N  0.19141555  0.23926589  0.01828464     0.13800
C328        C  0.17041190  0.24544999  0.00128853    -0.30400
C329        C  0.19912534  0.34082825  0.99227512    -0.30600
N330        N  0.19597895  0.33982036  0.96487074     0.14400
H331        H  0.21642992  0.34927988  0.00260006     0.17000
C332        C  0.17320088  0.32552711  0.95972519    -0.30700
H333        H  0.16693229  0.31889110  0.93982547     0.17000
H334        H  0.16070375  0.23060614  0.98866613     0.17000
H335        H  0.13599136  0.30317739  0.08122816     0.17100
H336        H  0.21327089  0.26273683  0.04788599     0.17000
N337        N  0.75217114  0.35612872  0.15266987    -0.00700
C338        C  0.73166891  0.36905077  0.16560730    -0.11500
C339        C  0.72151458  0.38992981  0.14916210    -0.07100
C340        C  0.73659380  0.38908350  0.12559280    -0.07700
C341        C  0.75529841  0.36801362  0.12841883    -0.11600
N342        N  0.78671665  0.64433391  0.13779564    -0.00700
C343        C  0.76502972  0.63527436  0.15125520    -0.11500
C344        C  0.75813933  0.60943679  0.14274920    -0.07100
C345        C  0.77692599  0.60314570  0.12284203    -0.07700
C346        C  0.79439419  0.62474419  0.12057543    -0.11600
N347        N  0.76429566  0.64648477  0.85449138    -0.00700
C348        C  0.78113889  0.66217676  0.86941119    -0.11500
C349        C  0.78568825  0.65106911  0.89521154    -0.07100
C350        C  0.77043474  0.62755117  0.89527626    -0.07700
C351        C  0.75753024  0.62551443  0.87032866    -0.11600
N352        N  0.77453876  0.36321595  0.84740826    -0.00700
C353        C  0.79057657  0.34926490  0.86566439    -0.11500
C354        C  0.79316723  0.36292299  0.89043355    -0.07100
C355        C  0.77640055  0.38691613  0.88473251    -0.07700
C356        C  0.76561257  0.38732343  0.85770187    -0.11600
C357        C  0.64275791  0.50724304  0.77967815     0.30900
C358        C  0.68443980  0.46860091  0.79746702     0.30900
C359        C  0.63472488  0.48250426  0.79675600    -0.05300
C360        C  0.66121496  0.49328191  0.75702536    -0.06100
C361        C  0.66569222  0.51762916  0.79915077    -0.06000
C362        C  0.65463750  0.46289211  0.80410268    -0.05300
C363        C  0.68195007  0.47427410  0.76594013    -0.06100
C364        C  0.68622436  0.49831811  0.80722460    -0.06000
C365        C  0.64081876  0.44016033  0.81203402    -0.31400
N366        N  0.61383253  0.44614659  0.81157163     0.15100
C367        C  0.61028285  0.47240726  0.80423120    -0.31400
H368        H  0.59057466  0.48162616  0.80040812     0.17100
C369        C  0.69892942  0.47016914  0.74372994    -0.30400
N370        N  0.69075908  0.48569895  0.72201681     0.13800
C371        C  0.66791475  0.49985128  0.73014820    -0.30400
C372        C  0.70495187  0.51156527  0.82268829    -0.30600
N373        N  0.69700173  0.53792588  0.82498531     0.14400
H374        H  0.72328096  0.50269265  0.83141357     0.17000
C375        C  0.67276128  0.54152404  0.81206143    -0.30700
H376        H  0.66139473  0.56033463  0.81268684     0.17000
H377        H  0.65765593  0.51529005  0.71802080     0.17000
H378        H  0.64950487  0.41990331  0.81444125     0.17100
H379        H  0.71671326  0.45720257  0.74350100     0.17000
C380        C  0.86177662  0.31399306  0.98587261     0.30900
C381        C  0.89614069  0.29669259  0.02885174     0.30900
C382        C  0.85927761  0.32933550  0.01330801    -0.05300
C383        C  0.85837659  0.28399322  0.99616273    -0.06100
C384        C  0.89300251  0.31460337  0.98093934    -0.06000
C385        C  0.87636488  0.32031809  0.03488768    -0.05300
C386        C  0.87685196  0.27502140  0.01644400    -0.06100
C387        C  0.90970117  0.30740215  0.00337987    -0.06000
C388        C  0.86323924  0.32686047  0.05850577    -0.31400
N389        N  0.83967983  0.34040855  0.05269763     0.15100
C390        C  0.83692176  0.34132833  0.02533087    -0.31400
H391        H  0.81879099  0.34809705  0.01465223     0.17100
C392        C  0.87150910  0.24786450  0.02118865    -0.30400
N393        N  0.84882071  0.24069380  0.00748473     0.13800
C394        C  0.84027057  0.26272504  0.99266046    -0.30400
C395        C  0.93459108  0.30011331  0.99403807    -0.30600
N396        N  0.93403649  0.29946561  0.96700043     0.14400
H397        H  0.95109945  0.29163095  0.00603400     0.17000
C398        C  0.90885025  0.30785878  0.95847338    -0.30700
H399        H  0.90154503  0.30618023  0.93788066     0.17000
H400        H  0.82185255  0.26334973  0.98065144     0.17000
H401        H  0.86894825  0.31922592  0.07830503     0.17100
H402        H  0.88290421  0.23409597  0.03415404     0.17000
C403        C  0.86308966  0.69426370  0.97661164     0.30900
C404        C  0.90045270  0.71782456  0.01155385     0.30900
C405        C  0.88828525  0.70595844  0.96396848    -0.05300
C406        C  0.85282447  0.71931182  0.99251265    -0.06100
C407        C  0.87493665  0.67566617  0.99881704    -0.06000
C408        C  0.90748628  0.71711356  0.98143385    -0.05300
C409        C  0.87169595  0.73186639  0.00999539    -0.06100
C410        C  0.89321771  0.68786162  0.01735174    -0.06000
C411        C  0.92807690  0.72639898  0.96561862    -0.31400
N412        N  0.92124064  0.72155465  0.93954658     0.15100
C413        C  0.89687209  0.70987982  0.93817244    -0.31400
H414        H  0.88670362  0.70426134  0.91960908     0.17100
C415        C  0.86188712  0.75841636  0.01286228    -0.30400
N416        N  0.83722772  0.76131301  0.00061672     0.13800
C417        C  0.83274316  0.73827004  0.98658585    -0.30400
C418        C  0.88751839  0.67639780  0.04223159    -0.30600
N419        N  0.86810015  0.65749506  0.03923397     0.14400
H420        H  0.89341770  0.68485167  0.06154528     0.17000
C421        C  0.86069410  0.65679079  0.01298390    -0.30700
H422        H  0.84226158  0.64747040  0.00578541     0.17000
H423        H  0.81723362  0.73636822  0.97118642     0.17000
H424        H  0.94671869  0.73558346  0.97235777     0.17100
H425        H  0.87275955  0.77518112  0.02141546     0.17000
C426        C  0.61259253  0.51311515  0.20455326     0.30900
C427        C  0.64329066  0.47389328  0.17981081     0.30900
C428        C  0.62888869  0.52298131  0.18017778    -0.05300
C429        C  0.63533953  0.49998359  0.22209749    -0.06100
C430        C  0.59714432  0.48855818  0.19332210    -0.06000
C431        C  0.64413050  0.50264153  0.16675250    -0.05300
C432        C  0.65028883  0.47958553  0.20932794    -0.06100
C433        C  0.61294453  0.46744564  0.18219112    -0.06000
C434        C  0.66600820  0.51573526  0.15543190    -0.31400
N435        N  0.66538862  0.54233924  0.16228095     0.15100
C436        C  0.64343249  0.54679016  0.17792712    -0.31400
H437        H  0.63983563  0.56521023  0.18940223     0.17100
C438        C  0.66913843  0.46944598  0.22723183    -0.30400
N439        N  0.66734408  0.48412077  0.25008644     0.13800
C440        C  0.64724682  0.50319424  0.24722309    -0.30400
C441        C  0.60156920  0.44370323  0.19227929    -0.30600
N442        N  0.57867851  0.44945188  0.20634643     0.14400
H443        H  0.61197485  0.42420490  0.19275233     0.17000
C444        C  0.57592688  0.47674314  0.20619209    -0.30700
H445        H  0.56274681  0.48787766  0.21942921     0.17000
H446        H  0.64218576  0.51842185  0.26218986     0.17000
H447        H  0.68304057  0.50600671  0.14551363     0.17100
H448        H  0.68328644  0.45268806  0.22404772     0.17000
N449        N  0.42276885  0.17800298  0.75371252    -0.00700
C450        C  0.44384349  0.16233568  0.74525533    -0.11500
C451        C  0.44392865  0.13904051  0.76164350    -0.07100
C452        C  0.42199779  0.13997609  0.77904132    -0.07700
C453        C  0.40960122  0.16438174  0.77329737    -0.11600
N454        N  0.67682812  0.14212153  0.75132958    -0.00700
C455        C  0.69090598  0.12852309  0.77099653    -0.11500
C456        C  0.68262456  0.10149601  0.77296428    -0.07100
C457        C  0.66237631  0.09936860  0.75324755    -0.07700
C458        C  0.65928667  0.12444263  0.74053412    -0.11600
N459        N  0.63392564  0.82790430  0.75163656    -0.00700
C460        C  0.64425846  0.84691828  0.76828835    -0.11500
C461        C  0.62985525  0.87082520  0.76610754    -0.07100
C462        C  0.60934105  0.86537853  0.74744067    -0.07700
C463        C  0.61241243  0.83885299  0.73817222    -0.11600
N464        N  0.37824742  0.86623269  0.77156300    -0.00700
C465        C  0.36727614  0.88316096  0.79033974    -0.11500
C466        C  0.38045838  0.90776317  0.79242737    -0.07100
C467        C  0.40042548  0.90577063  0.77247767    -0.07700
C468        C  0.39917769  0.87965087  0.76063658    -0.11600
C469        C  0.49181504  0.77229552  0.63093635     0.30900
C470        C  0.53460750  0.78633621  0.66413649     0.30900
C471        C  0.48636476  0.79673827  0.65006256    -0.05300
C472        C  0.50173337  0.75007867  0.65143684    -0.06100
C473        C  0.51814226  0.78010286  0.61707217    -0.06000
C474        C  0.50836311  0.80422435  0.66629914    -0.05300
C475        C  0.52283932  0.75758895  0.66900749    -0.06100
C476        C  0.54026326  0.78617462  0.63341963    -0.06000
C477        C  0.49799470  0.82006779  0.68705539    -0.31400
N478        N  0.47047874  0.82260366  0.68461505     0.15100
C479        C  0.46335624  0.80696316  0.66292276    -0.31400
H480        H  0.44290263  0.80126504  0.65782211     0.17100
C481        C  0.52504298  0.73709982  0.68827434    -0.30400
N482        N  0.50839375  0.71655355  0.68153369     0.13800
C483        C  0.49356914  0.72440558  0.65949213    -0.30400
C484        C  0.56309454  0.78093814  0.61756673    -0.30600
N485        N  0.55493684  0.77360556  0.59220686     0.14400
H486        H  0.58389629  0.78012512  0.62470357     0.17000
C487        C  0.52759243  0.77371839  0.59186220    -0.30700
H488        H  0.51538806  0.76700753  0.57496328     0.17000
H489        H  0.47760596  0.71251999  0.65053311     0.17000
H490        H  0.50995733  0.82785665  0.70361540     0.17100
H491        H  0.53691987  0.73711417  0.70664995     0.17000
C492        C  0.34075662  0.99643245  0.86788981     0.30900
C493        C  0.32283704  0.03954617  0.90008871     0.30900
C494        C  0.35809680  0.02279830  0.86788148    -0.05300
C495        C  0.31220763  0.00795588  0.86153842    -0.06100
C496        C  0.33753472  0.99003598  0.89885452    -0.06000
C497        C  0.34880240  0.04461565  0.88391895    -0.05300
C498        C  0.30312999  0.03004034  0.87718403    -0.06100
C499        C  0.32997494  0.01276008  0.91475329    -0.06000
C500        C  0.36044493  0.06797452  0.87379161    -0.31400
N501        N  0.37754567  0.06118246  0.85341813     0.15100
C502        C  0.37596321  0.03388327  0.84948201    -0.31400
H503        H  0.38532932  0.02327517  0.83277380     0.17100
C504        C  0.27795383  0.03767441  0.86644136    -0.30400
N505        N  0.27120561  0.02001883  0.84651265     0.13800
C506        C  0.29182895  0.00176861  0.84345383    -0.30400
C507        C  0.31815740  0.00364188  0.93794968    -0.30600
N508        N  0.31532935  0.97656879  0.93684206     0.14400
H509        H  0.30840441  0.01643692  0.95291022     0.17000
C510        C  0.32609684  0.96801598  0.91284584    -0.30700
H511        H  0.32288368  0.94799108  0.90451534     0.17000
H512        H  0.29195401  0.98526446  0.82901787     0.17000
H513        H  0.35489771  0.08865207  0.87920216     0.17100
H514        H  0.26541694  0.05494922  0.87217221     0.17000
C515        C  0.71711307  0.01430850  0.85068750     0.30900
C516        C  0.72688551  0.97077517  0.88510317     0.30900
C517        C  0.69708446  0.99050514  0.84896980    -0.05300
C518        C  0.74483272  0.99936750  0.84739873    -0.06100
C519        C  0.71818957  0.02100678  0.88153687    -0.06000
C520        C  0.70197888  0.96870485  0.86656720    -0.05300
C521        C  0.75006615  0.97751438  0.86507213    -0.06100
C522        C  0.72256683  0.99855208  0.89862536    -0.06000
C523        C  0.68802389  0.94676344  0.85654395    -0.31400
N524        N  0.67427033  0.95442106  0.83379001     0.15100
C525        C  0.68037324  0.98081694  0.82857844    -0.31400
H526        H  0.67473954  0.99161701  0.81023672     0.17100
C527        C  0.77685390  0.96962520  0.86096109    -0.30400
N528        N  0.78748920  0.98459450  0.84065578     0.13800
C529        C  0.76823320  0.00325972  0.83281293    -0.30400
C530        C  0.73212398  0.00800903  0.92299930    -0.30600
N531        N  0.73394289  0.03535839  0.92196565     0.14400
H532        H  0.73923479  0.99555633  0.93977118     0.17000
C533        C  0.72637986  0.04352371  0.89659712    -0.30700
H534        H  0.72848336  0.06402101  0.88898504     0.17000
H535        H  0.77138164  0.01899746  0.81794400     0.17000
H536        H  0.68990946  0.92602901  0.86383342     0.17100
H537        H  0.78804210  0.95428044  0.87209974     0.17000
C538        C  0.51268703  0.18694063  0.65099464     0.30900
C539        C  0.55130318  0.20403696  0.61497720     0.30900
C540        C  0.50247894  0.19447073  0.62244694    -0.05300
C541        C  0.52924341  0.21195759  0.65926899    -0.06100
C542        C  0.53631131  0.16641947  0.64590769    -0.06000
C543        C  0.52225386  0.20215971  0.60449279    -0.05300
C544        C  0.54819582  0.22150717  0.64091479    -0.06100
C545        C  0.55653355  0.17529233  0.62749913    -0.06000
C546        C  0.50990524  0.20819469  0.58031120    -0.31400
N547        N  0.48269151  0.20646947  0.58311056     0.15100
C548        C  0.47790744  0.19758278  0.60880909    -0.31400
H549        H  0.45805956  0.19461041  0.61733095     0.17100
C550        C  0.55958257  0.24430906  0.65286431    -0.30400
N551        N  0.54852227  0.24772865  0.67777064     0.13800
C552        C  0.53135302  0.22736097  0.68222156    -0.30400
C553        C  0.58104557  0.16558474  0.63814071    -0.30600
N554        N  0.57685895  0.15113778  0.66101361     0.14400
H555        H  0.60076123  0.17271741  0.63222064     0.17000
C556        C  0.54995419  0.15175173  0.66582099    -0.30700
H557        H  0.54120036  0.14577500  0.68484845     0.17000
H558        H  0.52051729  0.22500744  0.70091648     0.17000
H559        H  0.52027581  0.21366925  0.56201263     0.17100
H560        H  0.57421944  0.25771978  0.64403470     0.17000
O561        O  0.80935612  0.77850191  0.73863778    -0.80000
O562        O  0.79429366  0.82160148  0.85739482    -0.64700
O563        O  0.81045758  0.81136460  0.78428274    -1.11300
C564        C  0.89374025  0.77829899  0.81161519     1.06900
O565        O  0.83552833  0.82216660  0.87609893    -0.77900
O566        O  0.86040727  0.84228492  0.83157383    -0.65500
Ni567      Ni  0.78363240  0.79187557  0.76427935     1.34900
C568        C  0.86542722  0.84402605  0.80650675     0.85600
O569        O  0.77076696  0.83727377  0.81224832    -0.78500
O570        O  0.75421646  0.80448636  0.78635553    -0.88700
C571        C  0.81002390  0.82515892  0.87717521     0.85200
O572        O  0.79034018  0.76087797  0.78673721    -0.66900
O573        O  0.89085901  0.79645088  0.82954423    -0.86200
C574        C  0.78669091  0.76137478  0.81207410     0.86000
C575        C  0.75159523  0.82681940  0.79896918     1.07600
H576        H  0.82989410  0.77673489  0.83592683     0.39400
O577        O  0.83400956  0.79430418  0.82846163    -1.08900
O578        O  0.86262601  0.82424448  0.79011947    -0.65500
Ni579      Ni  0.84254618  0.79072547  0.79154115     1.26300
O580        O  0.78185625  0.78356391  0.82437115    -0.65800
O581        O  0.87405383  0.76917799  0.79838907    -0.78100
C582        C  0.83488550  0.77995371  0.73676296     0.85400
O583        O  0.85038027  0.78782386  0.75526186    -0.65200
Ni584      Ni  0.86139783  0.80906004  0.85100959     1.27400
Ni585      Ni  0.80226915  0.81632088  0.82108019     1.26100
H586        H  0.81404812  0.82855910  0.77564895     0.39900
O587        O  0.91658163  0.18261970  0.84059068    -0.80000
O588        O  0.80443370  0.18174542  0.81301512    -0.64700
O589        O  0.86738866  0.18668787  0.85637081    -1.11300
C590        C  0.87103434  0.09136801  0.83668499     1.06900
O591        O  0.79256960  0.15099711  0.84248409    -0.77900
O592        O  0.82115996  0.12231197  0.87783407    -0.65500
Ni593      Ni  0.89334134  0.21264164  0.84719953     1.34900
C594        C  0.83770752  0.13169109  0.89491957     0.85600
O595        O  0.82895338  0.22445077  0.83717406    -0.78500
O596        O  0.86805418  0.24200909  0.85295820    -0.88700
C597        C  0.78706603  0.16549285  0.82193099     0.85200
O598        O  0.88896896  0.21721153  0.80937827    -0.66900
O599        O  0.84512939  0.09335899  0.83584744    -0.86200
C600        C  0.87373626  0.20586040  0.79239869     0.86000
C601        C  0.84300667  0.24436828  0.84612282     1.07600
H602        H  0.85171028  0.14367296  0.81348430     0.39400
O603        O  0.84609603  0.14766292  0.83172203    -1.08900
O604        O  0.86064507  0.14137286  0.88821389    -0.65500
Ni605      Ni  0.87807345  0.14848514  0.85330120     1.26300
O606        O  0.85440709  0.19079700  0.79945258    -0.65800
O607        O  0.88653642  0.10990922  0.84652422    -0.78100
C608        C  0.92583237  0.17287783  0.86233779     0.85400
O609        O  0.91226255  0.15380797  0.87291593    -0.65200
Ni610      Ni  0.81904564  0.12242518  0.83954700     1.27400
Ni611      Ni  0.83658111  0.18567794  0.83386122     1.26100
H612        H  0.86155444  0.19040597  0.87459613     0.39900
N613        N  0.88842624  0.96948839  0.78574459    -0.00700
C614        C  0.90392564  0.99140393  0.78230764    -0.11500
C615        C  0.92504870  0.98490441  0.76504921    -0.07100
C616        C  0.92326342  0.95732855  0.75833949    -0.07700
C617        C  0.90008774  0.94860636  0.77182019    -0.11600
N618        N  0.03912228  0.22544141  0.88330480    -0.00700
C619        C  0.06092561  0.23880043  0.89257156    -0.11500
C620        C  0.05528323  0.25449514  0.91570475    -0.07100
C621        C  0.02689612  0.25068841  0.91875356    -0.07700
C622        C  0.01852180  0.23192785  0.89941438    -0.11600
O623        O  0.22350753  0.23252228  0.75512599    -0.80000
O624        O  0.27323771  0.18921182  0.86678220    -0.64700
O625        O  0.24125664  0.19874150  0.79644827    -1.11300
C626        C  0.16335026  0.20880382  0.85123464     1.06900
O627        O  0.24365164  0.15745711  0.86710815    -0.77900
O628        O  0.19499967  0.15024669  0.84553077    -0.65500
Ni629      Ni  0.25675735  0.22573734  0.77385559     1.34900
C630        C  0.19088760  0.14910089  0.82035433     0.85600
O631        O  0.29200127  0.18639305  0.81693382    -0.78500
O632        O  0.29285558  0.22122173  0.78832057    -0.88700
C633        C  0.26236126  0.16978459  0.87908425     0.85200
O634        O  0.24786778  0.25331185  0.79908183    -0.66900
O635        O  0.17668071  0.19563125  0.86939014    -0.86200
C636        C  0.25659845  0.25437225  0.82321628     0.86000
C637        C  0.30395112  0.20089891  0.80007200     1.07600
H638        H  0.22277811  0.21961396  0.85357074     0.39400
O639        O  0.22313544  0.20227789  0.84440474    -1.08900
O640        O  0.19596475  0.16902866  0.80488008    -0.65500
Ni641      Ni  0.20577912  0.20669353  0.81083276     1.26300
O642        O  0.26632758  0.23341252  0.83558496    -0.65800
O643        O  0.17168543  0.21420107  0.82748260    -0.78100
C644        C  0.19899661  0.22559326  0.75688243     0.85400
O645        O  0.18917270  0.21321520  0.77682294    -0.65200
Ni646      Ni  0.21013078  0.17649480  0.86879386     1.27400
Ni647      Ni  0.25819115  0.19481904  0.83126524     1.26100
H648        H  0.24161170  0.18145553  0.78718611     0.39900
N649        N  0.17153963  0.02075412  0.78612401    -0.00700
C650        C  0.15851574  0.99948946  0.77463700    -0.11500
C651        C  0.13547122  0.00874150  0.76055652    -0.07100
C652        C  0.13360085  0.03679583  0.76498739    -0.07700
C653        C  0.15615649  0.04346758  0.78083584    -0.11600
O654        O  0.26496357  0.83277553  0.83240903    -0.80000
O655        O  0.15532109  0.79759451  0.82126755    -0.64700
O656        O  0.21529629  0.84083208  0.81030031    -1.11300
C657        C  0.19462815  0.88443731  0.88850593     1.06900
O658        O  0.12906780  0.82898015  0.84138932    -0.77900
O659        O  0.15396252  0.87670598  0.82609738    -0.65500
Ni660      Ni  0.24795032  0.82392053  0.79893259     1.34900
C661        C  0.17350395  0.89254797  0.82149731     0.85600
O662        O  0.18853858  0.80376220  0.77986611    -0.78500
O663        O  0.23036837  0.81529466  0.76568230    -0.88700
C664        C  0.13379051  0.80484415  0.83281715     0.85200
O665        O  0.24431535  0.78752038  0.81185596    -0.66900
O666        O  0.17058605  0.88368252  0.87878899    -0.86200
C667        C  0.22699250  0.77770450  0.82762088     0.86000
C668        C  0.20634135  0.80689628  0.76156995     1.07600
H669        H  0.18641393  0.82195591  0.86433289     0.39400
O670        O  0.18335510  0.83528511  0.85019992    -1.08900
O671        O  0.19728982  0.88790414  0.83093720    -0.65500
Ni672      Ni  0.21499581  0.85538043  0.84543770     1.26300
O673        O  0.20448799  0.78941678  0.83188113    -0.65800
O674        O  0.21353641  0.86907998  0.88026602    -0.78100
C675        C  0.26823196  0.85782678  0.83668259     0.85400
O676        O  0.24790183  0.87321443  0.84036075    -0.65200
Ni677      Ni  0.15158628  0.85581498  0.85847718     1.27400
Ni678      Ni  0.18528181  0.81904263  0.81517141     1.26100
H679        H  0.21062381  0.85479016  0.79720954     0.39900
N680        N  0.02433308  0.75421653  0.82865035    -0.00700
C681        C  0.04127760  0.74452732  0.84815499    -0.11500
C682        C  0.02659307  0.73067221  0.86737049    -0.07100
C683        C  0.99979327  0.73200450  0.85896356    -0.07700
C684        C  0.99924610  0.74649240  0.83514153    -0.11600
N685        N  0.20797983  0.89126765  0.00886209    -0.00700
C686        C  0.21747027  0.89621462  0.03386954    -0.11500
C687        C  0.23863969  0.91440052  0.03400995    -0.07100
C688        C  0.24142839  0.92245961  0.00721145    -0.07700
C689        C  0.22169371  0.90836498  0.99281699    -0.11600
O690        O  0.16233071  0.80704267  0.26030916    -0.80000
O691        O  0.17610822  0.84973283  0.14726873    -0.64700
O692        O  0.17063891  0.80196297  0.20592743    -1.11300
C693        C  0.26285412  0.82529165  0.22012520     1.06900
O694        O  0.21121492  0.82368506  0.13810332    -0.77900
O695        O  0.24170044  0.79016044  0.16674958    -0.65500
Ni696      Ni  0.14039974  0.80125252  0.22867672     1.34900
C697        C  0.23258396  0.77182863  0.18186946     0.85600
O698        O  0.13678968  0.81689660  0.16334703    -0.78500
O699        O  0.11754342  0.79446294  0.19775532    -0.88700
C700        C  0.19437707  0.84205685  0.13111345     0.85200
O701        O  0.13081449  0.83909914  0.22855767    -0.66900
O702        O  0.26283032  0.83185564  0.19513215    -0.86200
C703        C  0.13930335  0.85947990  0.21559417     0.86000
C704        C  0.11823243  0.80207889  0.17302327     1.07600
H705        H  0.20789750  0.85204967  0.19787771     0.39400
O706        O  0.20735750  0.83368777  0.19098271    -1.08900
O707        O  0.21847864  0.77709106  0.20241634    -0.65500
Ni708      Ni  0.20573834  0.80945065  0.22007196     1.26300
O709        O  0.15632966  0.85736904  0.19639276    -0.65800
O710        O  0.24197340  0.81705757  0.23272471    -0.78100
C711        C  0.18365643  0.79330097  0.26638479     0.85400
O712        O  0.20120946  0.78656906  0.24935227    -0.65200
Ni713      Ni  0.23648632  0.82859560  0.16670428     1.27400
Ni714      Ni  0.17176581  0.82645455  0.17708132     1.26100
H715        H  0.17115648  0.78417570  0.19779889     0.39900
N716        N  0.00524512  0.77328561  0.12537104    -0.00700
C717        C  0.98368543  0.76908125  0.10894309    -0.11500
C718        C  0.99158190  0.75787905  0.08332081    -0.07100
C719        C  0.02100377  0.75666732  0.08489809    -0.07700
C720        C  0.02751554  0.76649873  0.11094001    -0.11600
O721        O  0.86898892  0.87224452  0.19334385    -0.80000
O722        O  0.82057874  0.77253580  0.13577398    -0.64700
O723        O  0.82735016  0.83963826  0.17319470    -1.11300
C724        C  0.83583157  0.78165683  0.24862158     1.06900
O725        O  0.78891355  0.76273010  0.16450189    -0.77900
O726        O  0.77643121  0.79218888  0.20636376    -0.65500
Ni727      Ni  0.85010951  0.86741846  0.15937036     1.34900
C728        C  0.77797201  0.81641065  0.21453548     0.85600
O729        O  0.81434329  0.82457870  0.12050599    -0.78500
O730        O  0.83104050  0.86647074  0.12523090    -0.88700
C731        C  0.80347897  0.75614419  0.14466290     0.85200
O732        O  0.87923756  0.84410579  0.14688987    -0.66900
O733        O  0.81866593  0.76703505  0.23608331    -0.86200
C734        C  0.88105454  0.81878903  0.14166396     0.86000
C735        C  0.81669477  0.84910459  0.11270894     1.07600
H736        H  0.84860518  0.77963819  0.18652810     0.39400
O737        O  0.83160032  0.78968800  0.18729990    -1.08900
O738        O  0.80023413  0.82820775  0.21823102    -0.65500
Ni739      Ni  0.83686065  0.82237313  0.20674484     1.26300
O740        O  0.86107500  0.80314523  0.14385617    -0.65800
O741        O  0.84556298  0.80359081  0.23939107    -0.78100
C742        C  0.85644050  0.87478855  0.21556138     0.85400
O743        O  0.84225258  0.85573391  0.22452424    -0.65200
Ni744      Ni  0.80431046  0.76571671  0.19982406     1.27400
Ni745      Ni  0.82372758  0.80666998  0.15343871     1.26100
H746        H  0.80946031  0.84784292  0.17451435     0.39900
N747        N  0.76813322  0.85593835  0.99618747    -0.00700
C748        C  0.75914769  0.87362278  0.01462749    -0.11500
C749        C  0.74556338  0.89510402  0.00174398    -0.07100
C750        C  0.74665811  0.89095647  0.97372071    -0.07700
C751        C  0.76050294  0.86581898  0.97185597    -0.11600
O752        O  0.16541127  0.11881984  0.21839178    -0.80000
O753        O  0.20858850  0.22893669  0.18820829    -0.64700
O754        O  0.15855222  0.17166871  0.20197433    -1.11300
C755        C  0.18529307  0.14481164  0.11679068     1.06900
O756        O  0.19685594  0.23473600  0.14469278    -0.77900
O757        O  0.14838492  0.20931481  0.14081967    -0.65500
Ni758      Ni  0.15956355  0.15290910  0.23562930     1.34900
C759        C  0.13008186  0.19213138  0.14545352     0.85600
O760        O  0.17643259  0.21780827  0.23077296    -0.78500
O761        O  0.15464844  0.18606668  0.25489637    -0.88700
C762        C  0.20904885  0.24232396  0.16608531     0.85200
O763        O  0.19742913  0.15278686  0.24257037    -0.66900
O764        O  0.17368882  0.16777050  0.11286675    -0.86200
C765        C  0.21743894  0.16195499  0.22991820     0.86000
C766        C  0.16428973  0.20973993  0.25203294     1.07600
H767        H  0.20969637  0.17437865  0.16332282     0.39400
O768        O  0.19117176  0.18111749  0.16349557    -1.08900
O769        O  0.13570329  0.16727193  0.15162433    -0.65500
Ni770      Ni  0.16755272  0.15102405  0.17021800     1.26300
O771        O  0.21471144  0.18017954  0.21172787    -0.65800
O772        O  0.18078323  0.13189599  0.13857583    -0.78100
C773        C  0.14786819  0.10914107  0.20263472     0.85400
O774        O  0.14427964  0.12073517  0.17976474    -0.65200
Ni775      Ni  0.18470013  0.20049846  0.13060240     1.27400
Ni776      Ni  0.18398496  0.20008852  0.19651795     1.26100
H777        H  0.14052390  0.17947855  0.20003376     0.39900
N778        N  0.99874377  0.22805214  0.14500907    -0.00700
C779        C  0.97638192  0.23912656  0.13254367    -0.11500
C780        C  0.98261483  0.25449613  0.10897328    -0.07100
C781        C  0.01174429  0.25247508  0.10873894    -0.07700
C782        C  0.02022806  0.23554648  0.13028563    -0.11600
N783        N  0.10972407  0.98819672  0.23410211    -0.00700
C784        C  0.09643410  0.01107030  0.24198611    -0.11500
C785        C  0.07376018  0.00515860  0.25820055    -0.07100
C786        C  0.07320896  0.97509157  0.25896109    -0.07700
C787        C  0.09596808  0.96667844  0.24354538    -0.11600
N788        N  0.25433540  0.14047262  0.00994157    -0.00700
C789        C  0.25740784  0.12052685  0.02863119    -0.11500
C790        C  0.27410167  0.09959404  0.01841792    -0.07100
C791        C  0.28029746  0.10657212  0.99155776    -0.07700
C792        C  0.26779851  0.13199016  0.98760045    -0.11600
N793        N  0.84080045  0.99543211  0.27217895    -0.00700
C794        C  0.85052295  0.01635145  0.28663851    -0.11500
C795        C  0.87054553  0.00689753  0.30468704    -0.07100
C796        C  0.87222499  0.97844942  0.30141642    -0.07700
C797        C  0.85495893  0.97282563  0.27962397    -0.11600
O798        O  0.75182239  0.18591336  0.24529439    -0.80000
O799        O  0.85904931  0.21932744  0.18813564    -0.64700
O800        O  0.78727474  0.19802485  0.20405263    -1.11300
C801        C  0.83353327  0.11490463  0.22569919     1.06900
O802        O  0.86460280  0.18223622  0.16429182    -0.77900
O803        O  0.83549289  0.13689970  0.16521796    -0.65500
Ni804      Ni  0.76908905  0.21779230  0.23163163     1.34900
C805        C  0.81150356  0.14314878  0.15803162     0.85600
O806        O  0.81033296  0.24327137  0.18432443    -0.78500
O807        O  0.78375062  0.25217560  0.21986658    -0.88700
C808        C  0.87244124  0.20570325  0.17107752     0.85200
O809        O  0.79726203  0.21131886  0.25719319    -0.66900
O810        O  0.85456610  0.12543632  0.21556755    -0.86200
C811        C  0.82175471  0.21787089  0.25462899     0.86000
C812        C  0.79481182  0.25890477  0.19766827     1.07600
H813        H  0.84069907  0.17577253  0.22796724     0.39400
O814        O  0.83329806  0.17443540  0.20992012    -1.08900
O815        O  0.79447068  0.15328209  0.17462797    -0.65500
Ni816      Ni  0.79740384  0.16154653  0.21292662     1.26300
O817        O  0.83130594  0.22425277  0.23185029    -0.65800
O818        O  0.80943312  0.12500607  0.22290730    -0.78100
C819        C  0.74435583  0.16463425  0.23296071     0.85400
O820        O  0.76001604  0.15183390  0.21673819    -0.65200
Ni821      Ni  0.85904195  0.15399433  0.19033304     1.27400
Ni822      Ni  0.82306291  0.20938295  0.19676276     1.26100
H823        H  0.77641827  0.19879463  0.18770716     0.39900
N824        N  0.79427395  0.13908837  0.02320426    -0.00700
C825        C  0.78977406  0.12236557  0.00198412    -0.11500
C826        C  0.77339824  0.10081125  0.00989963    -0.07100
C827        C  0.76872308  0.10370940  0.03791036    -0.07700
C828        C  0.78206522  0.12776030  0.04510590    -0.11600
N829        N  0.19465367  0.74741842  0.39067240    -0.00700
C830        C  0.18138177  0.76516214  0.37398325    -0.11500
C831        C  0.15557093  0.77166914  0.38299355    -0.07100
C832        C  0.15380634  0.75775508  0.40697863    -0.07700
C833        C  0.17771373  0.74292712  0.41139272    -0.11600
N834        N  0.18439001  0.76833155  0.64133448    -0.00700
C835        C  0.16933193  0.75978724  0.62031193    -0.11500
C836        C  0.14459498  0.77450198  0.61863016    -0.07100
C837        C  0.14354851  0.79148623  0.64151733    -0.07700
C838        C  0.16868223  0.78656572  0.65481147    -0.11600
N839        N  0.87831559  0.71592870  0.63749688    -0.00700
C840        C  0.89027288  0.73810700  0.64787456    -0.11500
C841        C  0.91478342  0.74321390  0.63587229    -0.07100
C842        C  0.91761629  0.72206120  0.61752909    -0.07700
C843        C  0.89493211  0.70609761  0.61860647    -0.11600
N844        N  0.86009072  0.72450959  0.36610007    -0.00700
C845        C  0.87528740  0.74129338  0.35037800    -0.11500
C846        C  0.90109735  0.74746751  0.36144647    -0.07100
C847        C  0.89994330  0.73280357  0.38682920    -0.07700
C848        C  0.87475856  0.71845717  0.38891799    -0.11600
C849        C  0.83092109  0.63688690  0.47229845     0.30900
C850        C  0.81259737  0.59448720  0.50668339     0.30900
C851        C  0.85060824  0.62643454  0.49442517    -0.05300
C852        C  0.80446269  0.64273703  0.48880642    -0.06100
C853        C  0.82328191  0.60998248  0.45904981    -0.06000
C854        C  0.84154670  0.60531301  0.51186123    -0.05300
C855        C  0.79532910  0.62153707  0.50604028    -0.06100
C856        C  0.81377993  0.58889429  0.47623272    -0.06000
C857        C  0.85475269  0.60924839  0.53620403    -0.31400
N858        N  0.87050333  0.63136785  0.53451342     0.15100
C859        C  0.86841151  0.64154596  0.50920403    -0.31400
H860        H  0.87505245  0.66164028  0.50359941     0.17100
C861        C  0.76837668  0.62768213  0.51170602    -0.30400
N862        N  0.76088550  0.65165453  0.49960421     0.13800
C863        C  0.78241985  0.66030748  0.48500403    -0.30400
C864        C  0.79602965  0.57452271  0.46077000    -0.30600
N865        N  0.79617831  0.58425575  0.43547900     0.14400
H866        H  0.78228539  0.55906206  0.46744171     0.17000
C867        C  0.81180142  0.60611965  0.43403339    -0.30700
H868        H  0.81300390  0.61913806  0.41646085     0.17000
H869        H  0.78151014  0.67712156  0.47086464     0.17000
H870        H  0.84980442  0.59961961  0.55510013     0.17100
H871        H  0.75477393  0.61475883  0.52269593     0.17000
C872        C  0.01651934  0.87077514  0.29098672     0.30900
C873        C  0.98520052  0.82663456  0.31023958     0.30900
C874        C  0.99013415  0.87746259  0.30538337    -0.05300
C875        C  0.00684459  0.84962940  0.26954726    -0.06100
C876        C  0.03059175  0.85127492  0.31184371    -0.06000
C877        C  0.97460585  0.85631373  0.31546439    -0.05300
C878        C  0.99086187  0.82787284  0.27874295    -0.06100
C879        C  0.01540970  0.82881665  0.32134340    -0.06000
C880        C  0.95143834  0.86895584  0.32600101    -0.31400
N881        N  0.95260873  0.89641699  0.32188284     0.15100
C882        C  0.97610960  0.90133718  0.30903410    -0.31400
H883        H  0.98189165  0.92078142  0.30090325     0.17100
C884        C  0.98693236  0.81126590  0.25603626    -0.30400
N885        N  0.99987299  0.82163409  0.23378308     0.13800
C886        C  0.01268773  0.84449304  0.24261549    -0.30400
C887        C  0.03463292  0.81194337  0.33452658    -0.30600
N888        N  0.05952524  0.82350304  0.33427645     0.14400
H889        H  0.03177873  0.79192117  0.34262709     0.17000
C890        C  0.05736300  0.84701445  0.31996884    -0.30700
H891        H  0.07450383  0.85912320  0.31432011     0.17000
H892        H  0.02675611  0.85615989  0.23095963     0.17000
H893        H  0.93451513  0.85880562  0.33506609     0.17100
H894        H  0.97572540  0.79257397  0.25613588     0.17000
C895        C  0.00757599  0.88921142  0.70316075     0.30900
C896        C  0.05074694  0.86096299  0.68059847     0.30900
C897        C  0.03183117  0.90627342  0.69429917    -0.05300
C898        C  0.02087644  0.86679620  0.72076914    -0.06100
C899        C  0.00067634  0.87267581  0.67725705    -0.06000
C900        C  0.05424296  0.89198157  0.68402301    -0.05300
C901        C  0.04226011  0.85206984  0.70894834    -0.06100
C902        C  0.02305329  0.85824803  0.66542743    -0.06000
C903        C  0.07668149  0.90730240  0.69127611    -0.31400
N904        N  0.06852810  0.93115922  0.70310702     0.15100
C905        C  0.04110291  0.93049800  0.70452026    -0.31400
H906        H  0.02863240  0.94548534  0.71473790     0.17100
C907        C  0.04245348  0.82670355  0.72079383    -0.30400
N908        N  0.02454446  0.82660981  0.74095824     0.13800
C909        C  0.01060807  0.85055265  0.74081627    -0.30400
C910        C  0.01234284  0.83466452  0.65438196    -0.30600
N911        N  0.98526663  0.83397157  0.65865865     0.14400
H912        H  0.02417650  0.81745380  0.64712035     0.17000
C913        C  0.97826496  0.85634744  0.67304714    -0.30700
H914        H  0.95888252  0.85876721  0.68288590     0.17000
H915        H  0.99361997  0.85536115  0.75375659     0.17000
H916        H  0.09742243  0.89981857  0.69079843     0.17100
H917        H  0.05424675  0.80894421  0.71496460     0.17000
C918        C  0.21344236  0.65699651  0.48578362     0.30900
C919        C  0.22989696  0.61392564  0.51793008     0.30900
C920        C  0.21082522  0.62885554  0.47337871    -0.05300
C921        C  0.24371597  0.65665221  0.49496954    -0.06100
C922        C  0.19834090  0.65411656  0.51233049    -0.06000
C923        C  0.21875178  0.60682584  0.48962668    -0.05300
C924        C  0.25188926  0.63478622  0.51135927    -0.06100
C925        C  0.20762306  0.63304359  0.52977270    -0.06000
C926        C  0.22301072  0.58520473  0.47230224    -0.31400
N927        N  0.21733787  0.59351481  0.44666944     0.15100
C928        C  0.21083647  0.62024129  0.44702042    -0.31400
H929        H  0.20912039  0.63304565  0.42923979     0.17100
C930        C  0.27856658  0.63879476  0.51871886    -0.30400
N931        N  0.28701419  0.66252673  0.50760953     0.13800
C932        C  0.26614465  0.67286036  0.49235539    -0.30400
C933        C  0.20567859  0.64418894  0.55556205    -0.30600
N934        N  0.19332275  0.66893332  0.55403512     0.14400
H935        H  0.21548710  0.63626397  0.57365192     0.17000
C936        C  0.18906350  0.67516231  0.52793814    -0.30700
H937        H  0.18366402  0.69539022  0.52073389     0.17000
H938        H  0.26736320  0.69118122  0.48049548     0.17000
H939        H  0.23238220  0.56578397  0.47748454     0.17100
H940        H  0.29076118  0.62527882  0.53128113     0.17000
N941        N  0.36631653  0.26910551  0.49516217    -0.00700
C942        C  0.38016646  0.25774144  0.51602011    -0.11500
C943        C  0.40125178  0.24102244  0.50619620    -0.07100
C944        C  0.40087574  0.24310997  0.47792694    -0.07700
C945        C  0.37881360  0.26065501  0.47232347    -0.11600
N946        N  0.27396796  0.48959192  0.33995000    -0.00700
C947        C  0.27273963  0.51493748  0.34988835    -0.11500
C948        C  0.25084821  0.51826459  0.36719373    -0.07100
C949        C  0.24060939  0.49209213  0.37008160    -0.07700
C950        C  0.25514845  0.47509318  0.35265226    -0.11600
N951        N  0.51858363  0.36169019  0.32709603    -0.00700
C952        C  0.53900153  0.37768169  0.31783024    -0.11500
C953        C  0.53097441  0.38860534  0.29237907    -0.07100
C954        C  0.50454227  0.38080754  0.28792187    -0.07700
C955        C  0.49760399  0.36501180  0.30948283    -0.11600
O956        O  0.28110686  0.27204909  0.34555440    -0.80000
O957        O  0.36889082  0.34618537  0.32251308    -0.64700
O958        O  0.29956802  0.31508213  0.32129690    -1.11300
C959        C  0.34492148  0.24008737  0.28047309     1.06900
O960        O  0.37608152  0.33154970  0.28135897    -0.77900
O961        O  0.34532415  0.29993423  0.25111167    -0.65500
Ni962      Ni  0.28059033  0.30964616  0.35357177     1.34900
C963        C  0.31997141  0.30489570  0.25042180     0.85600
O964        O  0.31768173  0.36384724  0.33757247    -0.78500
O965        O  0.28166982  0.34776571  0.36113765    -0.88700
C966        C  0.38477114  0.34242022  0.30285056     0.85200
O967        O  0.30897228  0.30139131  0.37755195    -0.66900
O968        O  0.36595477  0.25455416  0.27772451    -0.86200
C969        C  0.33385252  0.30594959  0.37670189     0.86000
C970        C  0.29599339  0.36701080  0.35169427     1.07600
H971        H  0.35423800  0.28571121  0.32346540     0.39400
O972        O  0.34587172  0.29610031  0.30894454    -1.08900
O973        O  0.30445403  0.29972963  0.27002905    -0.65500
Ni974      Ni  0.31054319  0.28221328  0.30418194     1.26300
O975        O  0.34493273  0.31891806  0.35795542    -0.65800
O976        O  0.32200967  0.24957949  0.28756106    -0.78100
C977        C  0.26539981  0.26660986  0.32635278     0.85400
O978        O  0.27416689  0.26953954  0.30265659    -0.65200
Ni979      Ni  0.37053973  0.29333029  0.27986203     1.27400
Ni980      Ni  0.33365727  0.33104315  0.32287209     1.26100
H981        H  0.28798363  0.32570804  0.30931513     0.39900
O982        O  0.67199280  0.27026611  0.27771103    -0.80000
O983        O  0.75101409  0.33908842  0.33100975    -0.64700
O984        O  0.70293691  0.28214498  0.32069097    -1.11300
C985        C  0.64143461  0.34781287  0.35264226     1.06900
O986        O  0.73640752  0.33399039  0.37208893    -0.77900
O987        O  0.69264879  0.30887201  0.39042513    -0.65500
Ni988      Ni  0.70758057  0.25991616  0.29008055     1.34900
C989        C  0.67627995  0.29039417  0.38420647     0.85600
O990        O  0.75716409  0.29132206  0.30927861    -0.78500
O991        O  0.74321437  0.24920931  0.30416505    -0.88700
C992        C  0.75007691  0.34735778  0.35512024     0.85200
O993        O  0.72159136  0.28678093  0.26545466    -0.66900
O994        O  0.65969185  0.35193649  0.37094086    -0.86200
C995        C  0.71977550  0.31267928  0.26648102     0.86000
C996        C  0.76112480  0.26612787  0.31161055     1.07600
H997        H  0.69435871  0.34666329  0.32551635     0.39400
O998        O  0.69707510  0.33063075  0.33662980    -1.08900
O999        O  0.66584464  0.28843436  0.36088327    -0.65500
Ni1000     Ni  0.67166944  0.30506267  0.32638961     1.26300
O1001       O  0.71934502  0.32519804  0.28891339    -0.65800
O1002       O  0.64318758  0.33003559  0.33381803    -0.78100
C1003       C  0.65171505  0.26544778  0.29247723     0.85400
O1004       O  0.64724435  0.27886865  0.31378239    -0.65200
Ni1005     Ni  0.69838094  0.34262336  0.37242536     1.27400
Ni1006     Ni  0.72762482  0.31051207  0.32407358     1.26100
H1007       H  0.70544072  0.27042614  0.33624132     0.39900
O1008       O  0.32753441  0.62864506  0.27929569    -0.80000
O1009       O  0.38309459  0.64135664  0.39579320    -0.64700
O1010       O  0.33427428  0.63370315  0.33497881    -1.11300
C1011       C  0.34752428  0.72897085  0.33353332     1.06900
O1012       O  0.35249186  0.67037529  0.41005353    -0.77900
O1013       O  0.31436471  0.70089680  0.38370418    -0.65500
Ni1014     Ni  0.34896276  0.61170627  0.30659059     1.34900
C1015       C  0.29619704  0.69334570  0.36729532     0.85600
O1016       O  0.35908239  0.59791974  0.37208689    -0.78500
O1017       O  0.37209932  0.59192917  0.33099126    -0.88700
C1018       C  0.37512416  0.65822828  0.41341151     0.85200
O1019       O  0.37502133  0.63899134  0.30276964    -0.66900
O1020       O  0.35349070  0.72781186  0.35867415    -0.86200
C1021       C  0.39545950  0.63743530  0.31826433     0.86000
C1022       C  0.36202440  0.58237233  0.35189116     1.07600
H1023       H  0.37577480  0.67899371  0.34935688     0.39400
O1024       O  0.35843708  0.67395650  0.35653026    -1.08900
O1025       O  0.30109467  0.67910088  0.34626140    -0.65500
Ni1026     Ni  0.33451241  0.67197281  0.32654667     1.26300
O1027       O  0.39264814  0.63420719  0.34374085    -0.65800
O1028       O  0.33757984  0.70975613  0.31949222    -0.78100
C1029       C  0.31465596  0.65089427  0.27589191     0.85400
O1030       O  0.31249398  0.66906724  0.29416059    -0.65200
Ni1031     Ni  0.35264670  0.69910026  0.38443867     1.27400
Ni1032     Ni  0.35956466  0.63643276  0.36525655     1.26100
H1033       H  0.31666766  0.62768143  0.34063308     0.39900
O1034       O  0.40704253  0.33937382  0.67522257    -0.80000
O1035       O  0.28669781  0.31593057  0.64629021    -0.64700
O1036       O  0.35087211  0.34629934  0.67352813    -1.11300
C1037       C  0.35426249  0.26426017  0.72102818     1.06900
O1038       O  0.27513822  0.30895679  0.68888752    -0.77900
O1039       O  0.30516096  0.30392948  0.73396717    -0.65500
Ni1040     Ni  0.37999612  0.35510091  0.65096530     1.34900
C1041       C  0.31583652  0.32672528  0.73873158     0.85600
O1042       O  0.31258981  0.36262567  0.63738620    -0.78500
O1043       O  0.35522913  0.37299412  0.62592035    -0.88700
C1044       C  0.26898890  0.31153296  0.66408739     0.85200
O1045       O  0.38044990  0.32238576  0.63030401    -0.66900
O1046       O  0.33054336  0.25858947  0.71241454    -0.86200
C1047       C  0.36086308  0.31038918  0.61896036     0.86000
C1048       C  0.32959866  0.37757209  0.62543008     1.07600
H1049       H  0.33706770  0.28660075  0.66829954     0.39400
O1050       O  0.32904823  0.30055018  0.67957538    -1.08900
O1051       O  0.33402877  0.33629720  0.72367781    -0.65500
Ni1052     Ni  0.35707516  0.31769290  0.69820390     1.26300
O1053       O  0.33646114  0.31380522  0.62671704    -0.65800
O1054       O  0.36317880  0.28827339  0.72253820    -0.78100
C1055       C  0.40703637  0.33820051  0.70097700     0.85400
O1056       O  0.38572896  0.33549202  0.71438448    -0.65200
Ni1057     Ni  0.30269683  0.28375817  0.70081574     1.27400
Ni1058     Ni  0.31971855  0.33104593  0.65794832     1.26100
H1059       H  0.34555912  0.36265118  0.68307787     0.39900
N1060       N  0.50975937  0.61827055  0.26580114    -0.00700
C1061       C  0.48782248  0.60286843  0.25999106    -0.11500
C1062       C  0.49422806  0.57917099  0.24510796    -0.07100
C1063       C  0.52305570  0.58146985  0.24235886    -0.07700
C1064       C  0.53154465  0.60535838  0.25562178    -0.11600
N1065       N  0.65472998  0.70332911  0.49651346    -0.00700
C1066       C  0.64156035  0.71591388  0.51669619    -0.11500
C1067       C  0.61920873  0.73090356  0.50592381    -0.07100
C1068       C  0.61844302  0.72681253  0.47734847    -0.07700
C1069       C  0.64068063  0.70910215  0.47339275    -0.11600
N1070       N  0.73126464  0.47788592  0.34342963    -0.00700
C1071       C  0.74687389  0.46105829  0.35854728    -0.11500
C1072       C  0.76120466  0.47499947  0.37782601    -0.07100
C1073       C  0.75348312  0.50187093  0.37402097    -0.07700
C1074       C  0.73579107  0.50305415  0.35238715    -0.11600
O1075       O  0.70117918  0.68698149  0.36441144    -0.80000
O1076       O  0.72446210  0.70068399  0.25497488    -0.64700
O1077       O  0.68224106  0.69779819  0.31709577    -1.11300
C1078       C  0.69808308  0.60313316  0.30490552     1.06900
O1079       O  0.69167941  0.67535061  0.23959216    -0.77900
O1080       O  0.65742208  0.64014442  0.26287336    -0.65500
Ni1081     Ni  0.69188999  0.71981944  0.34627695     1.34900
C1082       C  0.64109030  0.64421444  0.28212412     0.85600
O1083       O  0.70246245  0.73949270  0.28598001    -0.78500
O1084       O  0.68353018  0.75202815  0.32542146    -0.88700
C1085       C  0.71307002  0.68870840  0.23544842     0.85200
O1086       O  0.72988970  0.72590681  0.34273579    -0.66900
O1087       O  0.70062332  0.60868286  0.27969311    -0.86200
C1088       C  0.74743388  0.71355878  0.32862162     0.86000
C1089       C  0.69039909  0.75698490  0.30098237     1.07600
H1090       H  0.72408134  0.65580479  0.29420607     0.39400
O1091       O  0.70576468  0.66165699  0.28976372    -1.08900
O1092       O  0.64918498  0.65310754  0.30511940    -0.65500
Ni1093     Ni  0.68535622  0.65877358  0.32128745     1.26300
O1094       O  0.74007306  0.70081883  0.30728215    -0.65800
O1095       O  0.69070766  0.62020801  0.32306575    -0.78100
C1096       C  0.68175798  0.67318902  0.37286684     0.85400
O1097       O  0.66875368  0.65888909  0.35598781    -0.65200
Ni1098     Ni  0.69585338  0.64187996  0.25920844     1.27400
Ni1099     Ni  0.70495030  0.70049322  0.28735257     1.26100
H1100       H  0.66394024  0.70261072  0.31152898     0.39900
N1101       N  0.65079867  0.26200256  0.50189777    -0.00700
C1102       C  0.63658475  0.25802233  0.52475513    -0.11500
C1103       C  0.61593809  0.23965695  0.52117278    -0.07100
C1104       C  0.61627698  0.23352381  0.49368389    -0.07700
C1105       C  0.63796687  0.24771718  0.48237272    -0.11600
N1106       N  0.74734843  0.48594273  0.61724420    -0.00700
C1107       C  0.75648803  0.50706891  0.60225710    -0.11500
C1108       C  0.77227849  0.49927678  0.57919957    -0.07100
C1109       C  0.77100514  0.46942394  0.58062961    -0.07700
C1110       C  0.75580679  0.46322382  0.60428160    -0.11600
N1111       N  0.52792285  0.33342056  0.75215616    -0.00700
C1112       C  0.50437197  0.34357763  0.76234721    -0.11500
C1113       C  0.50916877  0.36635413  0.77849164    -0.07100
C1114       C  0.53679271  0.37033833  0.77673802    -0.07700
C1115       C  0.54723191  0.35094891  0.75931216    -0.11600
O1116       O  0.64545326  0.31134769  0.70743790    -0.80000
O1117       O  0.75929053  0.27673225  0.69365116    -0.64700
O1118       O  0.69799934  0.32078716  0.70757458    -1.11300
C1119       C  0.68188230  0.30595917  0.61559138     1.06900
O1120       O  0.76875801  0.30355792  0.65935270    -0.77900
O1121       O  0.73613109  0.33907998  0.63351504    -0.65500
Ni1122     Ni  0.67304898  0.31008804  0.73399395     1.34900
C1123       C  0.72356081  0.35803816  0.64560763     0.85600
O1124       O  0.74051590  0.30191146  0.73800941    -0.78500
O1125       O  0.70128539  0.30898249  0.76030108    -0.88700
C1126       C  0.77587786  0.28576106  0.67673869     0.85200
O1127       O  0.67383210  0.27159443  0.73152001    -0.66900
O1128       O  0.70645960  0.29760146  0.61378802    -0.86200
C1129       C  0.69139765  0.25493386  0.72272505     0.86000
C1130       C  0.72717094  0.30794350  0.75924780     1.07600
H1131       H  0.70573994  0.27804237  0.66376521     0.39400
O1132       O  0.71366992  0.29570898  0.66616000    -1.08900
O1133       O  0.70495593  0.35367922  0.66282218    -0.65500
Ni1134     Ni  0.68465257  0.32112355  0.67139319     1.26300
O1135       O  0.71249081  0.26273051  0.71061395    -0.65800
O1136       O  0.67186859  0.31923592  0.63522416    -0.78100
C1137       C  0.63989556  0.33488739  0.69858019     0.85400
O1138       O  0.65466338  0.34472369  0.68033463    -0.65200
Ni1139     Ni  0.73719363  0.30059900  0.63688776     1.27400
Ni1140     Ni  0.72806612  0.29767273  0.70176980     1.26100
H1141       H  0.70433473  0.33869170  0.71218640     0.39900
N1142       N  0.29482759  0.50460674  0.61870987    -0.00700
C1143       C  0.28576727  0.52760465  0.60636843    -0.11500
C1144       C  0.27209142  0.52099010  0.58190804    -0.07100
C1145       C  0.27284580  0.49211561  0.57920206    -0.07700
C1146       C  0.28726197  0.48352870  0.60253397    -0.11600
N1147       N  0.51501117  0.61333493  0.73641420    -0.00700
C1148       C  0.53843546  0.59979986  0.74312271    -0.11500
C1149       C  0.53441626  0.57396202  0.75544927    -0.07100
C1150       C  0.50417131  0.57339849  0.75592562    -0.07700
C1151       C  0.49406131  0.59780729  0.74362299    -0.11600
N1152       N  0.38881881  0.71678914  0.52188532    -0.00700
C1153       C  0.40884432  0.71673524  0.50338462    -0.11500
C1154       C  0.42980628  0.73334550  0.51187649    -0.07100
C1155       C  0.42320403  0.74276756  0.53741870    -0.07700
C1156       C  0.39786564  0.73212235  0.54268412    -0.11600
O1157       O  0.38540565  0.69912115  0.66627343    -0.80000
O1158       O  0.31642484  0.64581269  0.74297852    -0.64700
O1159       O  0.33770747  0.68224423  0.67923453    -1.11300
C1160       C  0.33856389  0.76113279  0.73678574     1.06900
O1161       O  0.28652209  0.67915221  0.74330394    -0.77900
O1162       O  0.28025530  0.72576951  0.71835714    -0.65500
Ni1163     Ni  0.36502065  0.66810265  0.65716356     1.34900
C1164       C  0.28413045  0.73084395  0.69362771     0.85600
O1165       O  0.32198943  0.62868391  0.68865686    -0.78500
O1166       O  0.34324971  0.63723618  0.64922060    -0.88700
C1167       C  0.29753904  0.65888564  0.75493148     0.85200
O1168       O  0.38694263  0.64676910  0.68132159    -0.66900
O1169       O  0.32092778  0.74855405  0.75079775    -0.86200
C1170       C  0.38662646  0.64212564  0.70645955     0.86000
C1171       C  0.32720297  0.62300764  0.66354564     1.07600
H1172       H  0.34877571  0.69655314  0.73939040     0.39400
O1173       O  0.33324187  0.69775716  0.72742081    -1.08900
O1174       O  0.30765839  0.72909658  0.68320257    -0.65500
Ni1175     Ni  0.34360905  0.71720244  0.69637058     1.26300
O1176       O  0.36596747  0.64959125  0.72059991    -0.65800
O1177       O  0.34880725  0.75131766  0.71513308    -0.78100
C1178       C  0.37701945  0.72043265  0.65440743     0.85400
O1179       O  0.35737841  0.73345789  0.66472130    -0.65200
Ni1180     Ni  0.30366347  0.71327480  0.74704746     1.27400
Ni1181     Ni  0.32845443  0.66223553  0.70997009     1.26100
H1182       H  0.32161381  0.68374721  0.66801952     0.39900
O1183       O  0.63770337  0.65148999  0.67987742    -0.80000
O1184       O  0.75267361  0.67818274  0.64798772    -0.64700
O1185       O  0.69264478  0.64568035  0.68191285    -1.11300
C1186       C  0.69047915  0.73123238  0.72495518     1.06900
O1187       O  0.76801524  0.68457393  0.68934154    -0.77900
O1188       O  0.74177340  0.68915512  0.73642043    -0.65500
Ni1189     Ni  0.66425917  0.63007747  0.66138892     1.34900
C1190       C  0.72717404  0.67067225  0.74602358     0.85600
O1191       O  0.72974944  0.62954450  0.64335844    -0.78500
O1192       O  0.68986612  0.60762679  0.64239952    -0.88700
C1193       C  0.77190180  0.68366292  0.66412412     0.85200
O1194       O  0.66178807  0.65510829  0.63197385    -0.66900
O1195       O  0.71501117  0.73389708  0.71749710    -0.86200
C1196       C  0.67750591  0.67242530  0.62184281     0.86000
C1197       C  0.71513873  0.60931204  0.63744039     1.07600
H1198       H  0.70476438  0.70630148  0.67253424     0.39400
O1199       O  0.71270035  0.69249938  0.68424459    -1.08900
O1200       O  0.70591461  0.66227520  0.73395606    -0.65500
Ni1201     Ni  0.68414647  0.67670001  0.70376999     1.26300
O1202       O  0.70081432  0.67694976  0.63231026    -0.65800
O1203       O  0.67700259  0.70927602  0.72365711    -0.78100
C1204       C  0.63560346  0.64971559  0.70529052     0.85400
O1205       O  0.65399496  0.65938688  0.72040356    -0.65200
Ni1206     Ni  0.74118320  0.70910121  0.70337927     1.27400
Ni1207     Ni  0.72164679  0.66166066  0.66304680     1.26100
H1208       H  0.70019117  0.63146900  0.69338638     0.39900
O1209       O  0.04779293  0.21037279  0.52957252    -0.73600
O1210       O  0.98691747  0.21156372  0.48221393    -0.73600
O1211       O  0.04106453  0.21840143  0.47637847    -0.73700
O1212       O  0.99396562  0.20449156  0.53576405    -0.73700
O1213       O  0.99018006  0.24941253  0.54212640    -0.73600
O1214       O  0.03481935  0.26297486  0.48221830    -0.73600
O1215       O  0.98129761  0.25604084  0.48937621    -0.73600
O1216       O  0.04303847  0.25545384  0.53466885    -0.73700
Ni1217     Ni  0.01755063  0.20950238  0.50561486     1.25400
Ni1218     Ni  0.01205038  0.25752364  0.51222689     1.25400
C1219       C  0.05522961  0.23287509  0.53973172     0.88600
C1220       C  0.97384562  0.23390514  0.47829974     0.88500
C1221       C  0.04670687  0.24307285  0.47043257     0.88600
C1222       C  0.98503580  0.22506270  0.54906152     0.88700
O1223       O  0.99391008  0.75946176  0.52944003    -0.73600
O1224       O  0.04388260  0.78014043  0.47584386    -0.73600
O1225       O  0.99135327  0.76487818  0.47575355    -0.73700
O1226       O  0.04558462  0.77545514  0.53021528    -0.73700
O1227       O  0.06000507  0.73244103  0.52523725    -0.73600
O1228       O  0.00293906  0.72104330  0.47264610    -0.73600
O1229       O  0.05501428  0.73609775  0.47122729    -0.73600
O1230       O  0.00850183  0.71614206  0.52633667    -0.73700
Ni1231     Ni  0.01819439  0.77160804  0.50290702     1.25400
Ni1232     Ni  0.03214705  0.72489672  0.49863537     1.25400
C1233       C  0.99332960  0.73445386  0.53646889     0.88600
C1234       C  0.05780686  0.76099596  0.46495395     0.88500
C1235       C  0.98741068  0.74122779  0.46577934     0.88600
C1236       C  0.06162108  0.75575288  0.53681071     0.88700
O1237       O  0.77401104  0.52117769  0.02994693    -0.73600
O1238       O  0.77225026  0.47145430  0.97289052    -0.73600
O1239       O  0.77696652  0.52535427  0.97647787    -0.73700
O1240       O  0.76907980  0.46779265  0.02684062    -0.73700
O1241       O  0.72412740  0.47329491  0.02522127    -0.73600
O1242       O  0.73202156  0.52983626  0.97304378    -0.73600
O1243       O  0.72699501  0.47517106  0.97055040    -0.73600
O1244       O  0.72897925  0.52737576  0.02706541    -0.73700
Ni1245     Ni  0.77463571  0.49616664  0.00151912     1.25400
Ni1246     Ni  0.72629342  0.50150292  0.99874156     1.25400
C1247       C  0.75197741  0.53224944  0.03787318     0.88600
C1248       C  0.74957231  0.46527748  0.96232581     0.88500
C1249       C  0.75585056  0.53765267  0.96702487     0.88600
C1250       C  0.74552152  0.46224713  0.03562243     0.88700
O1251       O  0.50226745  0.98148813  0.77078973    -0.73600
O1252       O  0.56985357  0.01274466  0.76231919    -0.73600
O1253       O  0.52074398  0.03147778  0.77616922    -0.73700
O1254       O  0.55006288  0.96313944  0.75559619    -0.73700
O1255       O  0.54125248  0.97231921  0.71200177    -0.73600
O1256       O  0.51105396  0.03891058  0.73248024    -0.73600
O1257       O  0.56098322  0.02302857  0.71916088    -0.73600
O1258       O  0.49165548  0.98861272  0.72752810    -0.73700
Ni1259     Ni  0.53626665  0.99688544  0.76769182     1.25400
Ni1260     Ni  0.52597181  0.00604654  0.72108540     1.25400
C1261       C  0.48572683  0.97953720  0.75113843     0.88600
C1262       C  0.57608440  0.02451746  0.74038547     0.88500
C1263       C  0.50980015  0.04564425  0.75722861     0.88600
C1264       C  0.54962992  0.95651108  0.73064631     0.88700
O1265       O  0.28089704  0.53929162  0.98520701    -0.73600
O1266       O  0.28397733  0.47881706  0.03328371    -0.73600
O1267       O  0.28565566  0.48480589  0.97898593    -0.73700
O1268       O  0.27935247  0.53340802  0.03888694    -0.73700
O1269       O  0.23422363  0.53073194  0.03689495    -0.73600
O1270       O  0.24072621  0.48173626  0.97679156    -0.73600
O1271       O  0.23894089  0.47607135  0.03131738    -0.73600
O1272       O  0.23582990  0.53612820  0.98272612    -0.73700
Ni1273     Ni  0.28407199  0.50907863  0.00918690     1.25400
Ni1274     Ni  0.23580054  0.50597017  0.00688568     1.25400
C1275       C  0.25783466  0.54771173  0.97625012     0.88600
C1276       C  0.26193176  0.46773292  0.04054592     0.88500
C1277       C  0.26428028  0.47558621  0.96760246     0.88600
C1278       C  0.25582205  0.54059466  0.04721694     0.88700
O1279       O  0.51875016  0.02244241  0.27297492    -0.73600
O1280       O  0.48345676  0.95585814  0.27151718    -0.73600
O1281       O  0.53523891  0.97059693  0.26927234    -0.73700
O1282       O  0.46659895  0.00783326  0.27446675    -0.73700
O1283       O  0.46390984  0.01024062  0.22965367    -0.73600
O1284       O  0.53166198  0.97202800  0.22425331    -0.73600
O1285       O  0.47936279  0.95747031  0.22663838    -0.73600
O1286       O  0.51643255  0.02497762  0.22788827    -0.73700
Ni1287     Ni  0.50106880  0.98913788  0.27362496     1.25400
Ni1288     Ni  0.49774823  0.99132847  0.22541499     1.25400
C1289       C  0.52405916  0.03424632  0.25082607     0.88600
C1290       C  0.47524114  0.94574164  0.24928786     0.88500
C1291       C  0.54442719  0.96493225  0.24580674     0.88600
C1292       C  0.45378780  0.01511128  0.25291019     0.88700
C1293       C  0.38916512  0.72867663  0.57034666     0.00700
C1294       C  0.40143006  0.70707596  0.58433786    -0.11200
C1295       C  0.40031339  0.70565446  0.61210492     0.02900
C1296       C  0.38437490  0.72507815  0.62624291     0.00600
C1297       C  0.37187544  0.74684232  0.61202858    -0.11100
C1298       C  0.37461906  0.74897838  0.58410048     0.02800
H1299       H  0.41287213  0.69170517  0.57336952     0.15800
H1300       H  0.35969804  0.76193121  0.62260487     0.15800
C1301       C  0.36228587  0.77175847  0.56989318     0.37500
C1302       C  0.41606245  0.68408908  0.62501951     0.37400
N1303       N  0.35234535  0.78993399  0.55839772    -0.42900
N1304       N  0.42889137  0.66684455  0.63508475    -0.42900
C1305       C  0.46469283  0.60506601  0.73525153     0.00700
C1306       C  0.44480951  0.61344462  0.75409648    -0.11200
C1307       C  0.41889020  0.62417249  0.74583676     0.02900
C1308       C  0.41229179  0.62777435  0.71801953     0.00600
C1309       C  0.43186638  0.61780045  0.69948546    -0.11100
C1310       C  0.45716714  0.60649197  0.70768985     0.02800
H1311       H  0.44973893  0.61239225  0.77542717     0.15800
H1312       H  0.42761928  0.61893038  0.67799329     0.15800
C1313       C  0.47522427  0.59628487  0.68712044     0.37500
C1314       C  0.39957633  0.63101476  0.76645615     0.37400
N1315       N  0.48963218  0.58801039  0.67061879    -0.42900
N1316       N  0.38414949  0.63588052  0.78330023    -0.42900
C1317       C  0.61213507  0.63561555  0.71656869     0.00700
C1318       C  0.59851647  0.64668687  0.73881029    -0.11200
C1319       C  0.57488662  0.63474699  0.74834027     0.02900
C1320       C  0.56496207  0.61111052  0.73581607     0.00600
C1321       C  0.57927440  0.59929518  0.71448545    -0.11100
C1322       C  0.60266138  0.61133334  0.70472567     0.02800
H1323       H  0.60587003  0.66507748  0.74820841     0.15800
H1324       H  0.57170270  0.58104102  0.70498451     0.15800
C1325       C  0.61670825  0.59810886  0.68273502     0.37500
C1326       C  0.56136708  0.64677061  0.77124361     0.37400
N1327       N  0.62791749  0.58746294  0.66512616    -0.42900
N1328       N  0.55068234  0.65634630  0.78973395    -0.42900
C1329       C  0.29250013  0.55520137  0.61762693     0.00700
C1330       C  0.28015113  0.56410065  0.64174196    -0.11200
C1331       C  0.29071592  0.58579272  0.65723780     0.02900
C1332       C  0.31454373  0.59910304  0.64898571     0.00600
C1333       C  0.32631658  0.59037515  0.62446598    -0.11100
C1334       C  0.31582931  0.56886925  0.60914326     0.02800
H1335       H  0.26272871  0.55329191  0.64910153     0.15800
H1336       H  0.34458945  0.59988553  0.61736887     0.15800
C1337       C  0.33122096  0.55967639  0.58617106     0.37500
C1338       C  0.27653646  0.59390430  0.68134192     0.37400
N1339       N  0.34438642  0.55259760  0.56819899    -0.42900
N1340       N  0.26499785  0.60037442  0.70060976    -0.42900
C1341       C  0.61926622  0.35063939  0.71285259     0.00700
C1342       C  0.59454213  0.35583988  0.69990355    -0.11200
C1343       C  0.57107195  0.35893670  0.71516817     0.02900
C1344       C  0.57218228  0.35411332  0.74340288     0.00600
C1345       C  0.59733626  0.35268546  0.75646558    -0.11100
C1346       C  0.62097330  0.35225528  0.74128569     0.02800
H1347       H  0.59331350  0.35588435  0.67801571     0.15800
H1348       H  0.59844939  0.35154894  0.77832992     0.15800
C1349       C  0.64674134  0.35359995  0.75515446     0.37500
C1350       C  0.54653425  0.36774940  0.70143628     0.37400
N1351       N  0.66718031  0.35572249  0.76652549    -0.42900
N1352       N  0.52738770  0.37534905  0.68981800    -0.42900
C1353       C  0.73103202  0.38618234  0.63792695     0.00700
C1354       C  0.75863501  0.39300258  0.63765993    -0.11200
C1355       C  0.76719795  0.41771396  0.62652700     0.02900
C1356       C  0.74818621  0.43566487  0.61422446     0.00600
C1357       C  0.72061121  0.42886230  0.61454692    -0.11100
C1358       C  0.71189635  0.40465050  0.62655557     0.02800
H1359       H  0.77358165  0.37891132  0.64621000     0.15800
H1360       H  0.70577708  0.44254063  0.60530928     0.15800
C1361       C  0.68335092  0.39868368  0.62598534     0.37500
C1362       C  0.79540012  0.42465570  0.62885703     0.37400
N1363       N  0.66047121  0.39388653  0.62565166    -0.42900
N1364       N  0.81798975  0.43030849  0.63091145    -0.42900
C1365       C  0.74791663  0.53482782  0.60894316     0.00700
C1366       C  0.75829072  0.54627009  0.63260532    -0.11200
C1367       C  0.74918769  0.57173303  0.64106844     0.02900
C1368       C  0.72860784  0.58543215  0.62615883     0.00600
C1369       C  0.71873505  0.57434006  0.60206195    -0.11100
C1370       C  0.72866890  0.54924395  0.59305546     0.02800
H1371       H  0.77340963  0.53514899  0.64449880     0.15800
H1372       H  0.70297618  0.58504905  0.59063766     0.15800
C1373       C  0.71842680  0.53834463  0.56798771     0.37500
C1374       C  0.76011923  0.58257416  0.66591407     0.37400
N1375       N  0.71045646  0.52963728  0.54778646    -0.42900
N1376       N  0.76899058  0.59122823  0.68576476    -0.42900
C1377       C  0.64223592  0.27191073  0.54998422     0.00700
C1378       C  0.64789091  0.25600565  0.57275817    -0.11200
C1379       C  0.65779599  0.26803032  0.59587790     0.02900
C1380       C  0.66353930  0.29592117  0.59548553     0.00600
C1381       C  0.65526760  0.31243309  0.57388324    -0.11100
C1382       C  0.64367088  0.30049518  0.55119487     0.02800
H1383       H  0.64587729  0.23408732  0.57206487     0.15800
H1384       H  0.65885390  0.33412927  0.57431682     0.15800
C1385       C  0.63338854  0.31763623  0.52955958     0.37500
C1386       C  0.66296091  0.25123857  0.61942294     0.37400
N1387       N  0.62478489  0.33127768  0.51231228    -0.42900
N1388       N  0.66659899  0.23782586  0.63837965    -0.42900
C1389       C  0.70620574  0.57591262  0.31417112     0.00700
C1390       C  0.73337249  0.56777451  0.31092508    -0.11200
C1391       C  0.74341233  0.54399039  0.32315951     0.02900
C1392       C  0.72594087  0.52795269  0.33856909     0.00600
C1393       C  0.69855861  0.53547459  0.34076025    -0.11100
C1394       C  0.68862070  0.55946070  0.32895875     0.02800
H1395       H  0.74699732  0.58059258  0.29972729     0.15800
H1396       H  0.68508809  0.52306488  0.35246397     0.15800
C1397       C  0.66036005  0.56658291  0.33220384     0.37500
C1398       C  0.77163364  0.53656243  0.31978440     0.37400
N1399       N  0.63759184  0.57179600  0.33490393    -0.42900
N1400       N  0.79427352  0.53068229  0.31710049    -0.42900
C1401       C  0.64988310  0.69923722  0.44736540     0.00700
C1402       C  0.67561874  0.70707500  0.43968688    -0.11200
C1403       C  0.68792190  0.69533403  0.41760932     0.02900
C1404       C  0.67267547  0.67823896  0.40042447     0.00600
C1405       C  0.64696017  0.66982785  0.40840474    -0.11100
C1406       C  0.63589926  0.67942921  0.43248726     0.02800
H1407       H  0.68666007  0.72164626  0.45174995     0.15800
H1408       H  0.63551841  0.65599068  0.39587352     0.15800
C1409       C  0.61118889  0.66765123  0.44204670     0.37500
C1410       C  0.71630982  0.70103081  0.41365412     0.37400
N1411       N  0.59160018  0.65765951  0.44962325    -0.42900
N1412       N  0.73905713  0.70544847  0.41069037    -0.42900
C1413       C  0.64775676  0.70905355  0.54583679     0.00700
C1414       C  0.67117792  0.71918929  0.55849432    -0.11200
C1415       C  0.68137110  0.70810898  0.58309441     0.02900
C1416       C  0.66757814  0.68681102  0.59629115     0.00600
C1417       C  0.64348967  0.67764101  0.58387521    -0.11100
C1418       C  0.63403286  0.68793995  0.55893741     0.02800
H1419       H  0.68235238  0.73498716  0.54844163     0.15800
H1420       H  0.63242435  0.66118098  0.59296828     0.15800
C1421       C  0.61141997  0.67469715  0.54617523     0.37500
C1422       C  0.70662629  0.71827668  0.59344719     0.37400
N1423       N  0.59346138  0.66369895  0.53605591    -0.42900
N1424       N  0.72705052  0.72639052  0.60141668    -0.42900
C1425       C  0.56016821  0.61445235  0.26177585     0.00700
C1426       C  0.57007205  0.61315508  0.28858915    -0.11200
C1427       C  0.59488880  0.62502706  0.29634079     0.02900
C1428       C  0.61181403  0.63681702  0.27672094     0.00600
C1429       C  0.60159963  0.63845386  0.24999378    -0.11100
C1430       C  0.57586796  0.62848986  0.24275475     0.02800
H1431       H  0.55792258  0.60345847  0.30383166     0.15800
H1432       H  0.61362556  0.64815782  0.23462254     0.15800
C1433       C  0.56536429  0.63480975  0.21618431     0.37500
C1434       C  0.60203955  0.62531074  0.32464340     0.37400
N1435       N  0.55713408  0.64078001  0.19499173    -0.42900
N1436       N  0.60733942  0.62596790  0.34745109    -0.42900
C1437       C  0.31909948  0.40296717  0.61290962     0.00700
C1438       C  0.29083899  0.40755033  0.61267696    -0.11200
C1439       C  0.27989627  0.43367647  0.60957000     0.02900
C1440       C  0.29737525  0.45567527  0.60647585     0.00600
C1441       C  0.32532920  0.45108140  0.60467282    -0.11100
C1442       C  0.33632686  0.42489586  0.60698344     0.02800
H1443       H  0.27719739  0.39095672  0.61651393     0.15800
H1444       H  0.33856069  0.46805464  0.60092963     0.15800
C1445       C  0.36524284  0.42155748  0.60343491     0.37500
C1446       C  0.25085678  0.43742256  0.61106445     0.37400
N1447       N  0.38836979  0.41896991  0.60028835    -0.42900
N1448       N  0.22754075  0.44012014  0.61219897    -0.42900
C1449       C  0.47900438  0.34133763  0.74740211     0.00700
C1450       C  0.47351016  0.36126466  0.72772633    -0.11200
C1451       C  0.45049712  0.36005650  0.71168678     0.02900
C1452       C  0.43236925  0.33887183  0.71582359     0.00600
C1453       C  0.43757957  0.31900620  0.73578335    -0.11100
C1454       C  0.46114121  0.31996182  0.75146801     0.02800
H1455       H  0.48755327  0.37761651  0.72465045     0.15800
H1456       H  0.42331537  0.30279727  0.73898020     0.15800
C1457       C  0.46648138  0.29935766  0.77171657     0.37500
C1458       C  0.44547449  0.38128581  0.69193319     0.37400
N1459       N  0.47090416  0.28299243  0.78808183    -0.42900
N1460       N  0.44148867  0.39829812  0.67612241    -0.42900
C1461       C  0.39357118  0.66859132  0.43409269     0.00700
C1462       C  0.39462079  0.65608464  0.45943865    -0.11200
C1463       C  0.40338982  0.67067344  0.48200856     0.02900
C1464       C  0.40915976  0.69862952  0.47940088     0.00600
C1465       C  0.41167590  0.70978426  0.45349702    -0.11100
C1466       C  0.40463164  0.69461401  0.43077321     0.02800
H1467       H  0.38703954  0.63566857  0.46187992     0.15800
H1468       H  0.41699535  0.73089302  0.45097437     0.15800
C1469       C  0.40758505  0.70661698  0.40433043     0.37500
C1470       C  0.40536228  0.65690866  0.50775585     0.37400
N1471       N  0.41054581  0.71611142  0.38317667    -0.42900
N1472       N  0.40714699  0.64581617  0.52835097    -0.42900
C1473       C  0.42147538  0.63157336  0.30528487     0.00700
C1474       C  0.42431864  0.64002473  0.27832130    -0.11200
C1475       C  0.44456765  0.62896618  0.26214527     0.02900
C1476       C  0.46214178  0.60890629  0.27285761     0.00600
C1477       C  0.45971223  0.60052166  0.29968473    -0.11100
C1478       C  0.43985647  0.61191960  0.31616189     0.02800
H1479       H  0.40998065  0.65450860  0.26947657     0.15800
H1480       H  0.47423323  0.58587413  0.30809153     0.15800
C1481       C  0.43848805  0.60225218  0.34368575     0.37500
C1482       C  0.44696102  0.63856383  0.23471360     0.37400
N1483       N  0.43749749  0.59446200  0.36572433    -0.42900
N1484       N  0.44861636  0.64641741  0.21275564    -0.42900
C1485       C  0.66638863  0.27242474  0.40565178     0.00700
C1486       C  0.63843281  0.27289686  0.41019826    -0.11200
C1487       C  0.62792189  0.26316560  0.43438774     0.02900
C1488       C  0.64534114  0.25010389  0.45342721     0.00600
C1489       C  0.67280199  0.24603824  0.44678253    -0.11100
C1490       C  0.68371761  0.25841457  0.42389501     0.02800
H1491       H  0.62511289  0.28397953  0.39628389     0.15800
H1492       H  0.68639200  0.23613272  0.46124704     0.15800
C1493       C  0.71278936  0.25838603  0.42085806     0.37500
C1494       C  0.60037603  0.27117825  0.44029235     0.37400
N1495       N  0.73613963  0.25864004  0.41886298    -0.42900
N1496       N  0.57837285  0.27888638  0.44367940    -0.42900
C1497       C  0.75494461  0.37598370  0.35977729     0.00700
C1498       C  0.73817851  0.38915239  0.37857882    -0.11200
C1499       C  0.73375389  0.41694067  0.37703043     0.02900
C1500       C  0.74701050  0.43183849  0.35707272     0.00600
C1501       C  0.76538202  0.41925671  0.33963332    -0.11100
C1502       C  0.76979069  0.39132815  0.34106956     0.02800
H1503       H  0.72684537  0.37763105  0.39322019     0.15800
H1504       H  0.77670292  0.43137106  0.32544654     0.15800
C1505       C  0.78916440  0.37886572  0.32294549     0.37500
C1506       C  0.71526148  0.42966104  0.39585938     0.37400
N1507       N  0.80462602  0.36877928  0.30845462    -0.42900
N1508       N  0.70044522  0.43967532  0.41103207    -0.42900
C1509       C  0.61764047  0.36586392  0.35069697     0.00700
C1510       C  0.59573559  0.36283216  0.36800417    -0.11200
C1511       C  0.56989398  0.37212829  0.35976251     0.02900
C1512       C  0.56564376  0.38126667  0.33278562     0.00600
C1513       C  0.58855517  0.39096218  0.31951500    -0.11100
C1514       C  0.61448708  0.38249677  0.32769375     0.02800
H1515       H  0.59853113  0.35247698  0.38721622     0.15800
H1516       H  0.58676420  0.40390585  0.30214793     0.15800
C1517       C  0.63734335  0.38907634  0.31095618     0.37500
C1518       C  0.54940996  0.37526457  0.38011921     0.37400
N1519       N  0.65569797  0.39415358  0.29757920    -0.42900
N1520       N  0.53386172  0.37857185  0.39720774    -0.42900
C1521       C  0.41391535  0.34770511  0.30598894     0.00700
C1522       C  0.43244137  0.33139576  0.29147473    -0.11200
C1523       C  0.46034901  0.33468855  0.29454164     0.02900
C1524       C  0.47007918  0.35447385  0.31243519     0.00600
C1525       C  0.45167873  0.37028282  0.32735887    -0.11100
C1526       C  0.42379147  0.36713558  0.32435109     0.02800
H1527       H  0.42514445  0.31609135  0.27758483     0.15800
H1528       H  0.45911406  0.38692218  0.33953795     0.15800
C1529       C  0.40596515  0.38558815  0.33872618     0.37500
C1530       C  0.47864448  0.31869068  0.27808418     0.37400
N1531       N  0.39176409  0.40050070  0.35018224    -0.42900
N1532       N  0.49335563  0.30598959  0.26484863    -0.42900
C1533       C  0.29733485  0.53062958  0.35044856     0.00700
C1534       C  0.30596091  0.54174411  0.32622123    -0.11200
C1535       C  0.33104504  0.55375054  0.32498483     0.02900
C1536       C  0.34560044  0.55829236  0.34932912     0.00600
C1537       C  0.33857814  0.54442641  0.37274334    -0.11100
C1538       C  0.31535696  0.52894919  0.37283187     0.02800
H1539       H  0.29354464  0.54011574  0.30811421     0.15800
H1540       H  0.35053604  0.54660906  0.39108348     0.15800
C1541       C  0.30971416  0.51297825  0.39657260     0.37500
C1542       C  0.34092578  0.56131490  0.29868388     0.37400
N1543       N  0.30582855  0.49989460  0.41554231    -0.42900
N1544       N  0.34911733  0.56707608  0.27764368    -0.42900
C1545       C  0.25805192  0.44533764  0.35461345     0.00700
C1546       C  0.26920948  0.43422537  0.37850433    -0.11200
C1547       C  0.28162908  0.40838382  0.37840783     0.02900
C1548       C  0.28401954  0.39425414  0.35382363     0.00600
C1549       C  0.27086412  0.40441632  0.33062828    -0.11100
C1550       C  0.25722332  0.42944170  0.33108711     0.02800
H1551       H  0.26966386  0.44634948  0.39677852     0.15800
H1552       H  0.27095468  0.39253864  0.31216524     0.15800
C1553       C  0.24283193  0.43859368  0.30713174     0.37500
C1554       C  0.29211704  0.39714034  0.40343113     0.37400
N1555       N  0.23117256  0.44569695  0.28791258    -0.42900
N1556       N  0.30010169  0.38820474  0.42369743    -0.42900
C1557       C  0.37743159  0.26798099  0.54413495     0.00700
C1558       C  0.35537097  0.26011490  0.55987193    -0.11200
C1559       C  0.34997371  0.27266544  0.58486860     0.02900
C1560       C  0.36692085  0.29358308  0.59449134     0.00600
C1561       C  0.38948833  0.30061021  0.57890996    -0.11100
C1562       C  0.39449897  0.28849298  0.55385805     0.02800
H1563       H  0.34188790  0.24468600  0.55223292     0.15800
H1564       H  0.40247983  0.31691221  0.58550922     0.15800
C1565       C  0.41575330  0.29937799  0.53738526     0.37500
C1566       C  0.32697724  0.26366626  0.60008437     0.37400
N1567       N  0.43252565  0.30846865  0.52410613    -0.42900
N1568       N  0.30854559  0.25634558  0.61223646    -0.42900
C1569       C  0.37113482  0.27146081  0.44570822     0.00700
C1570       C  0.37171126  0.29975929  0.44190357    -0.11200
C1571       C  0.36142848  0.31154509  0.41832726     0.02900
C1572       C  0.35031935  0.29473508  0.39846793     0.00600
C1573       C  0.35109480  0.26636450  0.40150410    -0.11100
C1574       C  0.36156092  0.25454171  0.42503343     0.02800
H1575       H  0.37980142  0.31266939  0.45763340     0.15800
H1576       H  0.34230340  0.25358136  0.38600313     0.15800
C1577       C  0.36059099  0.22537482  0.42822172     0.37500
C1578       C  0.36069407  0.34081887  0.41571610     0.37400
N1579       N  0.35987562  0.20199445  0.43077337    -0.42900
N1580       N  0.36003227  0.36426152  0.41351440    -0.42900
C1581       C  0.31285443  0.67577743  0.51177611     0.00700
C1582       C  0.32272905  0.69316337  0.49161972    -0.11200
C1583       C  0.34635672  0.70809999  0.49555515     0.02900
C1584       C  0.36249040  0.70405104  0.51901594     0.00600
C1585       C  0.35274012  0.68665154  0.53915001    -0.11100
C1586       C  0.32778914  0.67361781  0.53632353     0.02800
H1587       H  0.31165579  0.69572018  0.47278224     0.15800
H1588       H  0.36446870  0.68293961  0.55726924     0.15800
C1589       C  0.31742255  0.65996838  0.55979293     0.37500
C1590       C  0.35263802  0.72861754  0.47581001     0.37400
N1591       N  0.30918981  0.64939268  0.57886828    -0.42900
N1592       N  0.35720538  0.74518621  0.45993303    -0.42900
C1593       C  0.23918808  0.58834057  0.53433524     0.00700
C1594       C  0.26297299  0.57422396  0.52620012    -0.11200
C1595       C  0.27288721  0.55096814  0.54002935     0.02900
C1596       C  0.25964278  0.54166240  0.56327777     0.00600
C1597       C  0.23520338  0.55438675  0.57059959    -0.11100
C1598       C  0.22423152  0.57648729  0.55575758     0.02800
H1599       H  0.27384527  0.58129640  0.50867978     0.15800
H1600       H  0.22431090  0.54661152  0.58783335     0.15800
C1601       C  0.19668135  0.58440079  0.56187545     0.37500
C1602       C  0.29654532  0.53689611  0.52979334     0.37400
N1603       N  0.17448015  0.59022401  0.56703034    -0.42900
N1604       N  0.31536091  0.52557248  0.52124584    -0.42900
C1605       C  0.24116116  0.54368735  0.38128190     0.00700
C1606       C  0.25979069  0.56128409  0.39359811    -0.11200
C1607       C  0.25199283  0.57834947  0.41467988     0.02900
C1608       C  0.22492080  0.57910121  0.42285026     0.00600
C1609       C  0.20534089  0.56570354  0.40751669    -0.11100
C1610       C  0.21321994  0.54849837  0.38630500     0.02800
H1611       H  0.28078187  0.56093228  0.38871126     0.15800
H1612       H  0.18413312  0.56792953  0.41277065     0.15800
C1613       C  0.19236717  0.53567265  0.37044706     0.37500
C1614       C  0.27232482  0.59366302  0.42891391     0.37400
N1615       N  0.17556852  0.52547141  0.35777313    -0.42900
N1616       N  0.28856733  0.60587476  0.44044378    -0.42900
C1617       C  0.73397778  0.66452665  0.50003628     0.00700
C1618       C  0.71043150  0.64877721  0.49757362    -0.11200
C1619       C  0.68425090  0.66104970  0.49702292     0.02900
C1620       C  0.68111189  0.68956450  0.49881561     0.00600
C1621       C  0.70444237  0.70514368  0.50210938    -0.11100
C1622       C  0.73049280  0.69303797  0.50295491     0.02800
H1623       H  0.71249242  0.62688082  0.49571180     0.15800
H1624       H  0.70220403  0.72705631  0.50373183     0.15800
C1625       C  0.75313170  0.71042507  0.50813024     0.37500
C1626       C  0.66080737  0.64409508  0.49516210     0.37400
N1627       N  0.77090847  0.72481421  0.51255648    -0.42900
N1628       N  0.64196737  0.63046678  0.49391723    -0.42900
C1629       C  0.78540234  0.56969028  0.41367115     0.00700
C1630       C  0.75738041  0.56669740  0.41284211    -0.11200
C1631       C  0.74640880  0.54427894  0.40026922     0.02900
C1632       C  0.76392944  0.52529621  0.38775432     0.00600
C1633       C  0.79181514  0.52932817  0.38697545    -0.11100
C1634       C  0.80271735  0.55154592  0.39993226     0.02800
H1635       H  0.74453272  0.58031467  0.42453076     0.15800
H1636       H  0.80504070  0.51471506  0.37694652     0.15800
C1637       C  0.83182703  0.55356707  0.40192285     0.37500
C1638       C  0.71771844  0.53979460  0.40311188     0.37400
N1639       N  0.85515146  0.55511883  0.40373860    -0.42900
N1640       N  0.69477103  0.53629863  0.40585609    -0.42900
C1641       C  0.80348182  0.56886226  0.52555230     0.00700
C1642       C  0.80169158  0.54134148  0.51601436    -0.11200
C1643       C  0.79182743  0.51884173  0.53189867     0.02900
C1644       C  0.78572176  0.52148703  0.55991711     0.00600
C1645       C  0.79150680  0.54808123  0.57002337    -0.11100
C1646       C  0.79797688  0.57117559  0.55363022     0.02800
H1647       H  0.80841661  0.53665732  0.49585959     0.15800
H1648       H  0.79113508  0.55150737  0.59145842     0.15800
C1649       C  0.79833014  0.59738110  0.56667652     0.37500
C1650       C  0.78822211  0.49337076  0.51824491     0.37400
N1651       N  0.79852331  0.61834464  0.57727205    -0.42900
N1652       N  0.78550490  0.47336086  0.50636834    -0.42900
C1653       C  0.83172440  0.71817278  0.35985320     0.00700
C1654       C  0.82524411  0.70001056  0.33879388    -0.11200
C1655       C  0.79843051  0.69793709  0.32825653     0.02900
C1656       C  0.77694719  0.71447735  0.33848683     0.00600
C1657       C  0.78360240  0.73205926  0.36014592    -0.11100
C1658       C  0.81028650  0.73401448  0.37058587     0.02800
H1659       H  0.84140809  0.68778403  0.33008062     0.15800
H1660       H  0.76791349  0.74492029  0.36888401     0.15800
C1661       C  0.81553269  0.75348015  0.39165285     0.37500
C1662       C  0.79365064  0.67843067  0.30712167     0.37400
N1663       N  0.81973510  0.76910462  0.40856097    -0.42900
N1664       N  0.78982116  0.66263777  0.29027565    -0.42900
C1665       C  0.86526689  0.69810782  0.41123934     0.00700
C1666       C  0.85397321  0.70671146  0.43614303    -0.11200
C1667       C  0.84351518  0.68804117  0.45588725     0.02900
C1668       C  0.84313986  0.65921423  0.45154122     0.00600
C1669       C  0.85637590  0.65090413  0.42730647    -0.11100
C1670       C  0.86640139  0.66946451  0.40753736     0.02800
H1671       H  0.85325784  0.72833144  0.44036054     0.15800
H1672       H  0.85926301  0.62938776  0.42349110     0.15800
C1673       C  0.87830456  0.65834137  0.38336104     0.37500
C1674       C  0.83453504  0.69930818  0.48112925     0.37400
N1675       N  0.88786361  0.64942114  0.36396415    -0.42900
N1676       N  0.82785475  0.70865126  0.50148502    -0.42900
C1677       C  0.92375917  0.76646134  0.34812417     0.00700
C1678       C  0.91692701  0.78767186  0.32930373    -0.11200
C1679       C  0.93615047  0.80420153  0.31538268     0.02900
C1680       C  0.96441019  0.80383150  0.32191515     0.00600
C1681       C  0.97153230  0.78271509  0.34072705    -0.11100
C1682       C  0.95252543  0.76380372  0.35212142     0.02800
H1683       H  0.89617022  0.79226263  0.32496410     0.15800
H1684       H  0.99232008  0.77961193  0.34620302     0.15800
C1685       C  0.96411408  0.74025597  0.36550814     0.37500
C1686       C  0.92578918  0.82152957  0.29392652     0.37400
N1687       N  0.97438020  0.72130742  0.37537931    -0.42900
N1688       N  0.91742590  0.83529269  0.27665709    -0.42900
C1689       C  0.92039235  0.73468858  0.40889202     0.00700
C1690       C  0.93264584  0.71091683  0.41946671    -0.11200
C1691       C  0.95454202  0.71223559  0.43781799     0.02900
C1692       C  0.96425008  0.73786656  0.44634080     0.00600
C1693       C  0.95069223  0.76150646  0.43673898    -0.11100
C1694       C  0.92901757  0.76012922  0.41842273     0.02800
H1695       H  0.92593336  0.69126680  0.41241502     0.15800
H1696       H  0.95713432  0.78139963  0.44334112     0.15800
C1697       C  0.91585534  0.78522762  0.40982030     0.37500
C1698       C  0.96663437  0.68692083  0.44712423     0.37400
N1699       N  0.90535861  0.80531326  0.40281361    -0.42900
N1700       N  0.97625990  0.66651630  0.45441668    -0.42900
C1701       C  0.85140143  0.70688608  0.64313185     0.00700
C1702       C  0.82959588  0.72534236  0.64005044    -0.11200
C1703       C  0.80326182  0.71765640  0.64573924     0.02900
C1704       C  0.79845997  0.69087842  0.65417330     0.00600
C1705       C  0.82008359  0.67223170  0.65716405    -0.11100
C1706       C  0.84656684  0.68005760  0.65167614     0.02800
H1707       H  0.83325182  0.74587817  0.63324436     0.15800
H1708       H  0.81633992  0.65187081  0.66457368     0.15800
C1709       C  0.86848929  0.66074204  0.65625184     0.37500
C1710       C  0.78177591  0.73800772  0.64439732     0.37400
N1711       N  0.88596736  0.64511675  0.65998469    -0.42900
N1712       N  0.76468613  0.75444927  0.64361047    -0.42900
C1713       C  0.88716597  0.68562152  0.59836760     0.00700
C1714       C  0.90237240  0.66127983  0.59630398    -0.11200
C1715       C  0.89665829  0.64257635  0.57580455     0.02900
C1716       C  0.87578282  0.64851906  0.55713494     0.00600
C1717       C  0.86013289  0.67239165  0.55980005    -0.11100
C1718       C  0.86591091  0.69116935  0.57983474     0.02800
H1719       H  0.91892549  0.65719212  0.61038164     0.15800
H1720       H  0.84393350  0.67672571  0.54539866     0.15800
C1721       C  0.85163292  0.71708392  0.57899789     0.37500
C1722       C  0.91279772  0.61795211  0.57360634     0.37400
N1723       N  0.84036017  0.73791431  0.57778008    -0.42900
N1724       N  0.92570331  0.59814794  0.57180836    -0.42900
C1725       C  0.93310040  0.76686681  0.64115141     0.00700
C1726       C  0.94083430  0.77276688  0.66789904    -0.11200
C1727       C  0.95706894  0.79519821  0.67404660     0.02900
C1728       C  0.96789996  0.81113775  0.65313136     0.00600
C1729       C  0.96017440  0.80546604  0.62643369    -0.11100
C1730       C  0.94199359  0.78449228  0.62044645     0.02800
H1731       H  0.93375679  0.76012050  0.68422742     0.15800
H1732       H  0.96715917  0.81856786  0.61039341     0.15800
C1733       C  0.93038822  0.78394465  0.59362793     0.37500
C1734       C  0.96127199  0.80211706  0.70201577     0.37400
N1735       N  0.92084187  0.78456507  0.57218996    -0.42900
N1736       N  0.96383080  0.80778520  0.72455022    -0.42900
C1737       C  0.93762213  0.72013404  0.59671576     0.00700
C1738       C  0.92841713  0.72312179  0.57006203    -0.11200
C1739       C  0.94669098  0.72660989  0.54960270     0.02900
C1740       C  0.97432710  0.72645673  0.55612729     0.00600
C1741       C  0.98378759  0.72058735  0.58218907    -0.11100
C1742       C  0.96537659  0.71792628  0.60292778     0.02800
H1743       H  0.90698418  0.72527747  0.56550527     0.15800
H1744       H  0.00537649  0.71958434  0.58647128     0.15800
C1745       C  0.97522822  0.71425280  0.63028108     0.37500
C1746       C  0.93658142  0.73178204  0.52253784     0.37400
N1747       N  0.98311507  0.71153778  0.65222441    -0.42900
N1748       N  0.92813932  0.73595675  0.50101734    -0.42900
C1749       C  0.25975202  0.73877152  0.67664781     0.00700
C1750       C  0.25825772  0.76428478  0.66375354    -0.11200
C1751       C  0.23397764  0.77379369  0.65127001     0.02900
C1752       C  0.21072989  0.75740191  0.65052397     0.00600
C1753       C  0.21282371  0.73113278  0.66171401    -0.11100
C1754       C  0.23669771  0.72201477  0.67509996     0.02800
H1755       H  0.27569680  0.77732157  0.66443874     0.15800
H1756       H  0.19518818  0.71831043  0.66132890     0.15800
C1757       C  0.23692566  0.69536315  0.68739783     0.37500
C1758       C  0.23310265  0.80073179  0.63972535     0.37400
N1759       N  0.23703189  0.67398847  0.69724236    -0.42900
N1760       N  0.23243896  0.82237681  0.63048599    -0.42900
C1761       C  0.19076646  0.68868969  0.57495917     0.00700
C1762       C  0.16765018  0.68856035  0.59108488    -0.11200
C1763       C  0.16051969  0.71139395  0.60643710     0.02900
C1764       C  0.17652673  0.73485718  0.60520584     0.00600
C1765       C  0.20083850  0.73406404  0.59079243    -0.11100
C1766       C  0.20792863  0.71124899  0.57550363     0.02800
H1767       H  0.15457137  0.67108550  0.59062445     0.15800
H1768       H  0.21374376  0.75168872  0.59069885     0.15800
C1769       C  0.23218227  0.71174343  0.55943663     0.37500
C1770       C  0.13709446  0.71009001  0.62362315     0.37400
N1771       N  0.25162228  0.71216027  0.54654669    -0.42900
N1772       N  0.11843242  0.70896761  0.63754861    -0.42900
C1773       C  0.07628296  0.84514845  0.66929355     0.00700
C1774       C  0.09328141  0.83010936  0.68714600    -0.11200
C1775       C  0.11175761  0.81026256  0.67808467     0.02900
C1776       C  0.12011677  0.80977516  0.65090959     0.00600
C1777       C  0.10591372  0.82754493  0.63290864    -0.11100
C1778       C  0.08369345  0.84426637  0.64162346     0.02800
H1779       H  0.09138901  0.83245372  0.70871995     0.15800
H1780       H  0.11169446  0.82790982  0.61184904     0.15800
C1781       C  0.06916997  0.86059104  0.62186781     0.37500
C1782       C  0.11725595  0.78786045  0.69625171     0.37400
N1783       N  0.05748224  0.87370245  0.60601982    -0.42900
N1784       N  0.12002523  0.76973046  0.71102257    -0.42900
C1785       C  0.12317077  0.77068524  0.59734835     0.00700
C1786       C  0.09583878  0.76868304  0.60477505    -0.11200
C1787       C  0.07544034  0.76460680  0.58529310     0.02900
C1788       C  0.08239189  0.76030179  0.55800558     0.00600
C1789       C  0.10953510  0.76235268  0.55045315    -0.11100
C1790       C  0.12967818  0.76848045  0.56956733     0.02800
H1791       H  0.09029058  0.77045525  0.62583072     0.15800
H1792       H  0.11482288  0.76040282  0.52930747     0.15800
C1793       C  0.15632605  0.77446418  0.55962925     0.37500
C1794       C  0.04752631  0.76576666  0.59375751     0.37400
N1795       N  0.17746354  0.77953718  0.55123640    -0.42900
N1796       N  0.02526433  0.76745706  0.60081865    -0.42900
C1797       C  0.22008563  0.73334489  0.38519472     0.00700
C1798       C  0.22117706  0.70467997  0.38357592    -0.11200
C1799       C  0.24545581  0.69069722  0.37705018     0.02900
C1800       C  0.26897886  0.70555318  0.37183954     0.00600
C1801       C  0.26769454  0.73407476  0.37329719    -0.11100
C1802       C  0.24376940  0.74794671  0.37999069     0.02800
H1803       H  0.20298524  0.69327333  0.38721129     0.15800
H1804       H  0.28580835  0.74566767  0.36955146     0.15800
C1805       C  0.24445084  0.77717656  0.38214328     0.37500
C1806       C  0.24599353  0.66135961  0.37677831     0.37400
N1807       N  0.24558244  0.80061038  0.38369112    -0.42900
N1808       N  0.24634490  0.63781570  0.37665749    -0.42900
C1809       C  0.18380230  0.72351637  0.43370435     0.00700
C1810       C  0.16887011  0.69972574  0.43590197    -0.11200
C1811       C  0.17719813  0.67875954  0.45352813     0.02900
C1812       C  0.20194394  0.68072214  0.46836958     0.00600
C1813       C  0.21406606  0.70643356  0.46908259    -0.11100
C1814       C  0.20587708  0.72732123  0.45136447     0.02800
H1815       H  0.15113483  0.69708432  0.42323259     0.15800
H1816       H  0.22918725  0.71091102  0.48413913     0.15800
C1817       C  0.22017371  0.75267566  0.45194604     0.37500
C1818       C  0.15940448  0.65595847  0.45636425     0.37400
N1819       N  0.23165179  0.77298398  0.45247465    -0.42900
N1820       N  0.14504823  0.63775520  0.45860983    -0.42900
C1821       C  0.13231241  0.78611999  0.36828044     0.00700
C1822       C  0.12224104  0.81117942  0.37810523    -0.11200
C1823       C  0.09899797  0.82407025  0.36658374     0.02900
C1824       C  0.08452056  0.81155084  0.34535128     0.00600
C1825       C  0.09461578  0.78665146  0.33538555    -0.11100
C1826       C  0.11836522  0.77419334  0.34624166     0.02800
H1827       H  0.13245886  0.82062447  0.39504079     0.15800
H1828       H  0.08384088  0.77691297  0.31897568     0.15800
C1829       C  0.12734849  0.74867423  0.33481161     0.37500
C1830       C  0.08978059  0.84978625  0.37742222     0.37400
N1831       N  0.13420744  0.72819119  0.32536419    -0.42900
N1832       N  0.08243301  0.87048528  0.38603551    -0.42900
C1833       C  0.12934710  0.75795188  0.42261062     0.00700
C1834       C  0.12630547  0.77808670  0.44230909    -0.11200
C1835       C  0.10133315  0.78226676  0.45458265     0.02900
C1836       C  0.07926365  0.76648087  0.44630714     0.00600
C1837       C  0.08197503  0.74798179  0.42500347    -0.11100
C1838       C  0.10706116  0.74300101  0.41365688     0.02800
H1839       H  0.14346997  0.79032282  0.44814252     0.15800
H1840       H  0.06500261  0.73547003  0.41912680     0.15800
C1841       C  0.10970552  0.72150435  0.39396413     0.37500
C1842       C  0.09949122  0.80088298  0.47706212     0.37400
N1843       N  0.11172116  0.70384647  0.37865330    -0.42900
N1844       N  0.09802812  0.81565867  0.49518079    -0.42900
C1845       C  0.78871365  0.13494202  0.07352769     0.00700
C1846       C  0.81592199  0.13316463  0.08143232    -0.11200
C1847       C  0.82364885  0.13480265  0.10859161     0.02900
C1848       C  0.80379980  0.13923263  0.12893587     0.00600
C1849       C  0.77644870  0.14191670  0.12073972    -0.11100
C1850       C  0.76879942  0.13957657  0.09340006     0.02800
H1851       H  0.83125695  0.12910514  0.06630435     0.15800
H1852       H  0.76092208  0.14570393  0.13570120     0.15800
C1853       C  0.74046381  0.14239434  0.08625295     0.37500
C1854       C  0.85227612  0.13152679  0.11444780     0.37400
N1855       N  0.71768697  0.14465302  0.08071547    -0.42900
N1856       N  0.87523399  0.12867105  0.11887451    -0.42900
C1857       C  0.93127007  0.91680907  0.32519544     0.00700
C1858       C  0.90395563  0.90996108  0.32182349    -0.11200
C1859       C  0.88387715  0.93031203  0.31800326     0.02900
C1860       C  0.89125522  0.95791274  0.31478277     0.00600
C1861       C  0.91776744  0.96474032  0.32255161    -0.11100
C1862       C  0.93738257  0.94462857  0.32847688     0.02800
H1863       H  0.89831507  0.88878224  0.32119545     0.15800
H1864       H  0.92414677  0.98546857  0.32321988     0.15800
C1865       C  0.96375838  0.95322638  0.33762189     0.37500
C1866       C  0.85585150  0.92237900  0.31833141     0.37400
N1867       N  0.98488752  0.96017193  0.34489409    -0.42900
N1868       N  0.83341805  0.91594462  0.31900264    -0.42900
C1869       C  0.84915877  0.04419760  0.27496357     0.00700
C1870       C  0.86372418  0.04831476  0.25120100    -0.11200
C1871       C  0.85857047  0.07080482  0.23476832     0.02900
C1872       C  0.83815615  0.08996501  0.24189682     0.00600
C1873       C  0.82396893  0.08634318  0.26611258    -0.11100
C1874       C  0.82948237  0.06369315  0.28276162     0.02800
H1875       H  0.87795783  0.03281416  0.24437254     0.15800
H1876       H  0.80881710  0.10133823  0.27216713     0.15800
C1877       C  0.81443124  0.06063680  0.30737041     0.37500
C1878       C  0.87372544  0.07279511  0.21000259     0.37400
N1879       N  0.80229588  0.05840066  0.32711801    -0.42900
N1880       N  0.88600579  0.07436760  0.19027192    -0.42900
C1881       C  0.05436604  0.95289052  0.27048706     0.00700
C1882       C  0.03446558  0.94085360  0.25375987    -0.11200
C1883       C  0.02231251  0.91522433  0.25983646     0.02900
C1884       C  0.03117873  0.89852647  0.28213277     0.00600
C1885       C  0.04994830  0.91154973  0.29964084    -0.11100
C1886       C  0.06138830  0.93757653  0.29405775     0.02800
H1887       H  0.02841280  0.95148714  0.23541012     0.15800
H1888       H  0.05541801  0.90182470  0.31855211     0.15800
C1889       C  0.08100195  0.94793711  0.31298306     0.37500
C1890       C  0.99922626  0.90763988  0.24369435     0.37400
N1891       N  0.09688170  0.95582345  0.32826865    -0.42900
N1892       N  0.98026196  0.90195875  0.23114239    -0.42900
C1893       C  0.94910709  0.23163092  0.14134204     0.00700
C1894       C  0.93158830  0.25105889  0.15281684    -0.11200
C1895       C  0.90579813  0.24362973  0.16163496     0.02900
C1896       C  0.89786474  0.21611071  0.15970117     0.00600
C1897       C  0.91531496  0.19718060  0.14726729    -0.11100
C1898       C  0.94045676  0.20476260  0.13779652     0.02800
H1899       H  0.93798471  0.27196795  0.15462659     0.15800
H1900       H  0.90937062  0.17619579  0.14479448     0.15800
C1901       C  0.95587133  0.18521943  0.12220813     0.37500
C1902       C  0.88769083  0.26476749  0.17138729     0.37400
N1903       N  0.96756034  0.16957322  0.10909301    -0.42900
N1904       N  0.87310557  0.28182034  0.17884261    -0.42900
C1905       C  0.20635082  0.13521840  0.09732438     0.00700
C1906       C  0.20313474  0.11124369  0.08240167    -0.11200
C1907       C  0.22094263  0.10457253  0.06112011     0.02900
C1908       C  0.24317324  0.12143195  0.05527424     0.00600
C1909       C  0.24764108  0.14394603  0.07191170    -0.11100
C1910       C  0.22927869  0.15125026  0.09220339     0.02800
H1911       H  0.18561218  0.09880280  0.08602756     0.15800
H1912       H  0.26434940  0.15724675  0.06749476     0.15800
C1913       C  0.23377626  0.17626116  0.10652189     0.37500
C1914       C  0.21393523  0.08222407  0.04379446     0.37400
N1915       N  0.23742929  0.19654045  0.11761866    -0.42900
N1916       N  0.20752115  0.06442313  0.03004831    -0.42900
C1917       C  0.10611650  0.03856790  0.23404924     0.00700
C1918       C  0.09766509  0.05009558  0.20923128    -0.11200
C1919       C  0.11041706  0.07317108  0.19844612     0.02900
C1920       C  0.13265874  0.08472426  0.21224212     0.00600
C1921       C  0.14035882  0.07333632  0.23747693    -0.11100
C1922       C  0.12732522  0.05083563  0.24838015     0.02800
H1923       H  0.08148795  0.04060135  0.19791132     0.15800
H1924       H  0.15693234  0.08190433  0.24898014     0.15800
C1925       C  0.13653811  0.04048912  0.27423686     0.37500
C1926       C  0.10010931  0.08457560  0.17345121     0.37400
N1927       N  0.14413007  0.03264669  0.29506977    -0.42900
N1928       N  0.09169380  0.09386486  0.15350748    -0.42900
C1929       C  0.04857642  0.22464634  0.13476449     0.00700
C1930       C  0.05993405  0.20680370  0.11555546    -0.11200
C1931       C  0.08595709  0.19515830  0.11925946     0.02900
C1932       C  0.10140758  0.20152325  0.14239476     0.00600
C1933       C  0.09024027  0.21947120  0.16154655    -0.11100
C1934       C  0.06400246  0.23079459  0.15804965     0.02800
H1935       H  0.04816268  0.20145625  0.09782714     0.15800
H1936       H  0.10217283  0.22484450  0.17918645     0.15800
C1937       C  0.05367918  0.24926262  0.17824593     0.37500
C1938       C  0.09672987  0.17721099  0.09878084     0.37400
N1939       N  0.04543060  0.26405709  0.19449499    -0.42900
N1940       N  0.10551125  0.16279861  0.08246581    -0.42900
C1941       C  0.84554727  0.77182569  0.27491823     0.00700
C1942       C  0.85866848  0.74628377  0.27610233    -0.11200
C1943       C  0.86929582  0.73642607  0.30050206     0.02900
C1944       C  0.86490594  0.75132824  0.32429054     0.00600
C1945       C  0.85007087  0.77592253  0.32343991    -0.11100
C1946       C  0.84235278  0.78729455  0.29861737     0.02800
H1947       H  0.86153695  0.73457270  0.25776568     0.15800
H1948       H  0.84700492  0.78738604  0.34190037     0.15800
C1949       C  0.83335123  0.81538790  0.29776210     0.37500
C1950       C  0.88472695  0.71116693  0.30079558     0.37400
N1951       N  0.82706744  0.83818487  0.29707051    -0.42900
N1952       N  0.89715572  0.69096807  0.30126414    -0.42900
C1953       C  0.80040451  0.85796776  0.08871503     0.00700
C1954       C  0.77749588  0.84272931  0.08161434    -0.11200
C1955       C  0.76157532  0.84957772  0.05906044     0.02900
C1956       C  0.76826996  0.87208778  0.04311641     0.00600
C1957       C  0.78945311  0.88883840  0.05139918    -0.11100
C1958       C  0.80586474  0.88176582  0.07369905     0.02800
H1959       H  0.77213838  0.82506488  0.09344147     0.15800
H1960       H  0.79479608  0.90604489  0.03891370     0.15800
C1961       C  0.82930957  0.89807478  0.07920207     0.37500
C1962       C  0.73895144  0.83269401  0.05200661     0.37400
N1963       N  0.84822717  0.91099131  0.08354732    -0.42900
N1964       N  0.72078572  0.81922875  0.04631378    -0.42900
C1965       C  0.85646335  0.90054464  0.23078756     0.00700
C1966       C  0.88056406  0.91454051  0.23511424    -0.11200
C1967       C  0.88062446  0.93836539  0.25065696     0.02900
C1968       C  0.85624523  0.94810245  0.26248560     0.00600
C1969       C  0.83203768  0.93484556  0.25689146    -0.11100
C1970       C  0.83192054  0.91138576  0.24115246     0.02800
H1971       H  0.89931750  0.90677035  0.22654257     0.15800
H1972       H  0.81314131  0.94281014  0.26501369     0.15800
C1973       C  0.80609138  0.89954537  0.23477983     0.37500
C1974       C  0.90571966  0.95281603  0.25321566     0.37400
N1975       N  0.78551187  0.89004405  0.22926279    -0.42900
N1976       N  0.92599795  0.96415594  0.25507097    -0.42900
C1977       C  0.00445543  0.78517426  0.15274369     0.00700
C1978       C  0.00879046  0.81304554  0.15667267    -0.11200
C1979       C  0.00649783  0.82546589  0.18245095     0.02900
C1980       C  0.00110809  0.80978939  0.20617928     0.00600
C1981       C  0.99667704  0.78170044  0.20190522    -0.11100
C1982       C  0.99782816  0.76967934  0.17579227     0.02800
H1983       H  0.01310005  0.82545595  0.13915899     0.15800
H1984       H  0.99227872  0.76883790  0.21901848     0.15800
C1985       C  0.99196280  0.74122177  0.17302863     0.37500
C1986       C  0.00804307  0.85469530  0.18292200     0.37400
N1987       N  0.98715021  0.71838358  0.17080945    -0.42900
N1988       N  0.00932210  0.87817335  0.18246677    -0.42900
C1989       C  0.95680771  0.78081570  0.11646288     0.00700
C1990       C  0.95384116  0.80925090  0.11644032    -0.11200
C1991       C  0.92957622  0.82208774  0.12418580     0.02900
C1992       C  0.90746580  0.80634323  0.13272748     0.00600
C1993       C  0.91052359  0.77763938  0.13234655    -0.11100
C1994       C  0.93483159  0.76488921  0.12419770     0.02800
H1995       H  0.97062430  0.82153253  0.10992457     0.15800
H1996       H  0.89386923  0.76496667  0.13838121     0.15800
C1997       C  0.93658386  0.73557034  0.12314490     0.37500
C1998       C  0.92797594  0.85137525  0.12222683     0.37400
N1999       N  0.93796353  0.71208016  0.12189626    -0.42900
N2000       N  0.92678685  0.87484682  0.12046063    -0.42900
C2001       C  0.18894920  0.78615835  0.29388042     0.00700
C2002       C  0.18897021  0.80697705  0.31295265    -0.11200
C2003       C  0.19009908  0.80050619  0.34008967     0.02900
C2004       C  0.19069550  0.77295145  0.34767111     0.00600
C2005       C  0.19408828  0.75234527  0.32856282    -0.11100
C2006       C  0.19319200  0.75881895  0.30138636     0.02800
H2007       H  0.18710984  0.82807081  0.30664470     0.15800
H2008       H  0.19448143  0.73114623  0.33470057     0.15800
C2009       C  0.19373764  0.73703914  0.28179418     0.37500
C2010       C  0.18912171  0.82218030  0.35974810     0.37400
N2011       N  0.19410573  0.71967194  0.26604657    -0.42900
N2012       N  0.18854487  0.83952721  0.37550957    -0.42900
C2013       C  0.05482684  0.77210946  0.12156941     0.00700
C2014       C  0.06588618  0.79756606  0.11612409    -0.11200
C2015       C  0.08694094  0.80765970  0.13220157     0.02900
C2016       C  0.09690724  0.79216890  0.15441330     0.00600
C2017       C  0.08677703  0.76597654  0.15868153    -0.11100
C2018       C  0.06605567  0.75584818  0.14234469     0.02800
H2019       H  0.05683852  0.81030944  0.10042386     0.15800
H2020       H  0.09489616  0.75343680  0.17500688     0.15800
C2021       C  0.05597816  0.72901367  0.14769408     0.37500
C2022       C  0.09658418  0.83461975  0.12653532     0.37400
N2023       N  0.04800976  0.70741941  0.15179270    -0.42900
N2024       N  0.10439322  0.85619569  0.12200347    -0.42900
C2025       C  0.12818697  0.88677669  0.22315057     0.00700
C2026       C  0.11609659  0.90340893  0.20317892    -0.11200
C2027       C  0.10402021  0.92864180  0.20978723     0.02900
C2028       C  0.10438394  0.93806653  0.23676117     0.00600
C2029       C  0.11643224  0.92139588  0.25670039    -0.11100
C2030       C  0.12788672  0.89586068  0.25025076     0.02800
H2031       H  0.11562324  0.89643016  0.18241143     0.15800
H2032       H  0.11784023  0.92871210  0.27723942     0.15800
C2033       C  0.14032092  0.87995044  0.27170327     0.37500
C2034       C  0.09111621  0.94440785  0.18850723     0.37400
N2035       N  0.15025674  0.86737378  0.28904650    -0.42900
N2036       N  0.08075872  0.95691464  0.17134647    -0.42900
C2037       C  0.20842031  0.88194450  0.05748864     0.00700
C2038       C  0.21748660  0.85520661  0.06057879    -0.11200
C2039       C  0.21225139  0.84125410  0.08408969     0.02900
C2040       C  0.19683172  0.85421942  0.10453951     0.00600
C2041       C  0.18619189  0.88056142  0.10047354    -0.11100
C2042       C  0.19223561  0.89474163  0.07710433     0.02800
H2043       H  0.22986269  0.84571910  0.04506298     0.15800
H2044       H  0.17437426  0.89057917  0.11606265     0.15800
C2045       C  0.18172276  0.92218478  0.07374696     0.37500
C2046       C  0.22438089  0.81439699  0.08695142     0.37400
N2047       N  0.17307405  0.94409198  0.07112947    -0.42900
N2048       N  0.23460988  0.79316140  0.08947961    -0.42900
C2049       C  0.03032772  0.77113848  0.80590505     0.00700
C2050       C  0.02351980  0.76165826  0.78006256    -0.11200
C2051       C  0.02186857  0.77952312  0.75816041     0.02900
C2052       C  0.02588844  0.80743089  0.76248432     0.00600
C2053       C  0.03477976  0.81649270  0.78766185    -0.11100
C2054       C  0.03772830  0.79855102  0.80926080     0.02800
H2055       H  0.01837000  0.74048126  0.77739895     0.15800
H2056       H  0.03934667  0.83782937  0.79033340     0.15800
C2057       C  0.04554746  0.80992609  0.83489245     0.37500
C2058       C  0.01576557  0.76893494  0.73169034     0.37400
N2059       N  0.05128947  0.82055870  0.85491834    -0.42900
N2060       N  0.01124085  0.76028614  0.71043066    -0.42900
C2061       C  0.19788839  0.80153549  0.73402513     0.00700
C2062       C  0.19463264  0.82359298  0.71611759    -0.11200
C2063       C  0.18356773  0.81971781  0.69035272     0.02900
C2064       C  0.17575296  0.79353356  0.68271204     0.00600
C2065       C  0.17894126  0.77168497  0.70085640    -0.11100
C2066       C  0.19008117  0.77542585  0.72632824     0.02800
H2067       H  0.20036864  0.84381858  0.72243802     0.15800
H2068       H  0.17289423  0.75146278  0.69485689     0.15800
C2069       C  0.19419299  0.75211938  0.74382915     0.37500
C2070       C  0.18096304  0.84246386  0.67199463     0.37400
N2071       N  0.19768953  0.73340677  0.75773662    -0.42900
N2072       N  0.17883832  0.86064897  0.65720022    -0.42900
C2073       C  0.07022054  0.75106415  0.84924478     0.00700
C2074       C  0.08485538  0.74733908  0.82529992    -0.11200
C2075       C  0.10669971  0.76392582  0.81951317     0.02900
C2076       C  0.11403037  0.78400315  0.83828725     0.00600
C2077       C  0.10288959  0.78391406  0.86403367    -0.11100
C2078       C  0.08090657  0.76782073  0.86979270     0.02800
H2079       H  0.07728162  0.73375378  0.80984290     0.15800
H2080       H  0.11005860  0.79816812  0.87912260     0.15800
C2081       C  0.06781651  0.77353795  0.89506843     0.37500
C2082       C  0.11968920  0.76137044  0.79362049     0.37400
N2083       N  0.05913405  0.78018089  0.91570006    -0.42900
N2084       N  0.13028427  0.75917812  0.77296725    -0.42900
C2085       C  0.20109879  0.90244902  0.91098455     0.00700
C2086       C  0.18068795  0.90962021  0.92922620    -0.11200
C2087       C  0.18766076  0.91557507  0.95584633     0.02900
C2088       C  0.21487905  0.91215719  0.96428554     0.00600
C2089       C  0.23525822  0.90956247  0.94512678    -0.11100
C2090       C  0.22849016  0.90669270  0.91815435     0.02800
H2091       H  0.15949083  0.90847034  0.92342846     0.15800
H2092       H  0.25633439  0.90798485  0.95111064     0.15800
C2093       C  0.25017397  0.90662146  0.89874084     0.37500
C2094       C  0.16678293  0.92460749  0.97417421     0.37400
N2095       N  0.26794922  0.90725642  0.88368313    -0.42900
N2096       N  0.15014001  0.93256173  0.98862523    -0.42900
C2097       C  0.11687543  0.99088624  0.74467750     0.00700
C2098       C  0.12705915  0.97720709  0.72187957    -0.11200
C2099       C  0.11149722  0.95808042  0.70763970     0.02900
C2100       C  0.08528826  0.95132514  0.71669397     0.00600
C2101       C  0.07525457  0.96523454  0.73963164    -0.11100
C2102       C  0.09047634  0.98495540  0.75324970     0.02800
H2103       H  0.14737077  0.98157584  0.71510264     0.15800
H2104       H  0.05556014  0.96038902  0.74755449     0.15800
C2105       C  0.07892726  0.99771808  0.77681579     0.37500
C2106       C  0.12269511  0.94650981  0.68334253     0.37400
N2107       N  0.06938782  0.00761966  0.79575161    -0.42900
N2108       N  0.13173631  0.93730619  0.66382260    -0.42900
C2109       C  0.16228626  0.97080728  0.78357612     0.00700
C2110       C  0.14129218  0.95936129  0.79847001    -0.11200
C2111       C  0.14402196  0.93349503  0.80992380     0.02900
C2112       C  0.16838158  0.91834592  0.80663141     0.00600
C2113       C  0.18935573  0.92963432  0.79135793    -0.11100
C2114       C  0.18645375  0.95563115  0.77977047     0.02800
H2115       H  0.12305461  0.97128915  0.80233283     0.15800
H2116       H  0.20826524  0.91832744  0.78890586     0.15800
C2117       C  0.20868423  0.96646286  0.76465954     0.37500
C2118       C  0.12232859  0.92417959  0.82682636     0.37400
N2119       N  0.22666318  0.97510842  0.75272393    -0.42900
N2120       N  0.10498492  0.91684729  0.84047288    -0.42900
C2121       C  0.16243122  0.07118265  0.79133761     0.00700
C2122       C  0.16342274  0.09335196  0.77343047    -0.11200
C2123       C  0.17153824  0.11917486  0.78228849     0.02900
C2124       C  0.18004214  0.12295547  0.80942752     0.00600
C2125       C  0.17746553  0.10093770  0.82746729    -0.11100
C2126       C  0.16812473  0.07569517  0.81891477     0.02800
H2127       H  0.15806384  0.09043654  0.75235882     0.15800
H2128       H  0.18243244  0.10337177  0.84869241     0.15800
C2129       C  0.16305335  0.05543210  0.83931500     0.37500
C2130       C  0.16952283  0.14144001  0.76336477     0.37400
N2131       N  0.15875142  0.03962088  0.85601500    -0.42900
N2132       N  0.16716770  0.15924341  0.74816918    -0.42900
C2133       C  0.26654083  0.14606901  0.96136035     0.00700
C2134       C  0.29083258  0.15212414  0.94809795    -0.11200
C2135       C  0.29037898  0.16170245  0.92141626     0.02900
C2136       C  0.26527510  0.16554498  0.90820326     0.00600
C2137       C  0.24116244  0.16149403  0.92229044    -0.11100
C2138       C  0.24151530  0.15112932  0.94829072     0.02800
H2139       H  0.31011642  0.14818132  0.95818504     0.15800
H2140       H  0.22172854  0.16460920  0.91220889     0.15800
C2141       C  0.21594711  0.14288630  0.95932892     0.37500
C2142       C  0.31560774  0.16536912  0.90745851     0.37400
N2143       N  0.19516211  0.13610143  0.96733651    -0.42900
N2144       N  0.33581145  0.16824168  0.89619196    -0.42900
C2145       C  0.13621386  0.21688924  0.85851610     0.00700
C2146       C  0.12844531  0.24448068  0.85821755    -0.11200
C2147       C  0.10372215  0.25259296  0.86943457     0.02900
C2148       C  0.08742852  0.23279002  0.88127063     0.00600
C2149       C  0.09545577  0.20541388  0.88142201    -0.11100
C2150       C  0.11919819  0.19716802  0.86936569     0.02800
H2151       H  0.14189943  0.25953430  0.84998435     0.15800
H2152       H  0.08311176  0.19040783  0.89120389     0.15800
C2153       C  0.12559437  0.16833118  0.86822683     0.37500
C2154       C  0.09549579  0.28090921  0.86875739     0.37400
N2155       N  0.13059565  0.14526544  0.86713645    -0.42900
N2156       N  0.08878921  0.30359098  0.86828911    -0.42900
C2157       C  0.94408030  0.93990976  0.74385118     0.00700
C2158       C  0.96925401  0.93454081  0.75629959    -0.11200
C2159       C  0.98928307  0.91795955  0.74399147     0.02900
C2160       C  0.98498663  0.90643078  0.71783099     0.00600
C2161       C  0.95974001  0.91248248  0.70525421    -0.11100
C2162       C  0.93938316  0.92835517  0.71812511     0.02800
H2163       H  0.97320243  0.94312474  0.77608588     0.15800
H2164       H  0.95585944  0.90548836  0.68492947     0.15800
C2165       C  0.91408852  0.93311027  0.70395428     0.37500
C2166       C  0.01416260  0.91329776  0.75905365     0.37400
N2167       N  0.89398856  0.93670678  0.69215073    -0.42900
N2168       N  0.03406076  0.90954140  0.77117587    -0.42900
C2169       C  0.89867902  0.01821378  0.79568339     0.00700
C2170       C  0.88200765  0.03738158  0.78254889    -0.11200
C2171       C  0.87363965  0.06131403  0.79559542     0.02900
C2172       C  0.88261672  0.06710148  0.82232375     0.00600
C2173       C  0.90053266  0.04847255  0.83505608    -0.11100
C2174       C  0.90825704  0.02397212  0.82206046     0.02800
H2175       H  0.87474807  0.03321815  0.76226687     0.15800
H2176       H  0.90749154  0.05242688  0.85547649     0.15800
C2177       C  0.92548390  0.00462891  0.83631415     0.37500
C2178       C  0.85508352  0.07931334  0.78112325     0.37400
N2179       N  0.93933756  0.98899517  0.84755557    -0.42900
N2180       N  0.83991693  0.09342434  0.76956740    -0.42900
C2181       C  0.94754703  0.18877526  0.87604990     0.00700
C2182       C  0.95354829  0.21419835  0.86435532    -0.11200
C2183       C  0.97496189  0.22981500  0.87342102     0.02900
C2184       C  0.99107383  0.22064747  0.89517691     0.00600
C2185       C  0.98409325  0.19643019  0.90853630    -0.11100
C2186       C  0.96251803  0.18038072  0.89911247     0.02800
H2187       H  0.94207901  0.22183792  0.84706926     0.15800
H2188       H  0.99667189  0.18912063  0.92519381     0.15800
C2189       C  0.95725324  0.15495229  0.91244455     0.37500
C2190       C  0.98106407  0.25411261  0.85840428     0.37400
N2191       N  0.95307904  0.13454320  0.92318365    -0.42900
N2192       N  0.98553160  0.27320288  0.84560627    -0.42900
C2193       C  0.82808960  0.13213733  0.92354816     0.00700
C2194       C  0.83969637  0.11460192  0.94306770    -0.11200
C2195       C  0.82748594  0.11123570  0.96854541     0.02900
C2196       C  0.80309256  0.12538676  0.97493885     0.00600
C2197       C  0.79207098  0.14362394  0.95582986    -0.11100
C2198       C  0.80420202  0.14700079  0.93041602     0.02800
H2199       H  0.85779663  0.10286131  0.93812714     0.15800
H2200       H  0.77378016  0.15510751  0.96069551     0.15800
C2201       C  0.79172906  0.16601784  0.91158307     0.37500
C2202       C  0.84045971  0.09327012  0.98799517     0.37400
N2203       N  0.78177940  0.18137425  0.89658292    -0.42900
N2204       N  0.85085783  0.07897215  0.00370254    -0.42900
C2205       C  0.84809330  0.76997715  0.71316517     0.00700
C2206       C  0.86455360  0.74683628  0.71678513    -0.11200
C2207       C  0.88041343  0.73748156  0.69591626     0.02900
C2208       C  0.87974781  0.75163713  0.67130901     0.00600
C2209       C  0.86424719  0.77551752  0.66790129    -0.11100
C2210       C  0.84803379  0.78477749  0.68890412     0.02800
H2211       H  0.86507268  0.73619358  0.73601485     0.15800
H2212       H  0.86376855  0.78591821  0.64855210     0.15800
C2213       C  0.83179153  0.80928731  0.68538817     0.37500
C2214       C  0.89681931  0.71307978  0.69988456     0.37400
N2215       N  0.81874951  0.82893164  0.68266201    -0.42900
N2216       N  0.91002740  0.69359751  0.70295144    -0.45100
C2217       C  0.79795516  0.83388108  0.90242746     0.00700
C2218       C  0.77029118  0.82879689  0.90665712    -0.11200
C2219       C  0.75725188  0.83915040  0.92926323     0.02900
C2220       C  0.77223881  0.85432077  0.94774703     0.00600
C2221       C  0.79979476  0.85877730  0.94400638    -0.11100
C2222       C  0.81284089  0.84892670  0.92150788     0.02800
H2223       H  0.75874440  0.81716723  0.89210451     0.15800
H2224       H  0.81063662  0.87176532  0.95782336     0.15800
C2225       C  0.84080120  0.85641450  0.91796914     0.37500
C2226       C  0.72870370  0.83450674  0.93286017     0.37400
N2227       N  0.86314561  0.86258843  0.91530531    -0.42900
N2228       N  0.70578958  0.83086011  0.93563981    -0.42900
C2229       C  0.87599509  0.86958057  0.79608563     0.00700
C2230       C  0.86280348  0.88217846  0.77412377    -0.11200
C2231       C  0.87108811  0.90753929  0.76486074     0.02900
C2232       C  0.89340518  0.92011740  0.77722406     0.00600
C2233       C  0.90752970  0.90677841  0.79823369    -0.11100
C2234       C  0.89894876  0.88165771  0.80782932     0.02800
H2235       H  0.84535481  0.87266472  0.76489165     0.15800
H2236       H  0.92465992  0.91652495  0.80781641     0.15800
C2237       C  0.91406381  0.86854498  0.82951911     0.37500
C2238       C  0.85583533  0.92033174  0.74321450     0.37400
N2239       N  0.92613152  0.85791861  0.84683863    -0.42900
N2240       N  0.84314909  0.92995085  0.72577327    -0.42900
C2241       C  0.92141420  0.76927831  0.80611169     0.00700
C2242       C  0.94090125  0.78934883  0.80881764    -0.11200
C2243       C  0.96643082  0.78260901  0.81868185     0.02900
C2244       C  0.97435053  0.75495380  0.82066846     0.00600
C2245       C  0.95621585  0.73471233  0.81275867    -0.11100
C2246       C  0.92932140  0.74164958  0.80635313     0.02800
H2247       H  0.93459297  0.81065162  0.80835524     0.15800
H2248       H  0.96225128  0.71344299  0.81453594     0.15800
C2249       C  0.90986392  0.72025948  0.80366402     0.37500
C2250       C  0.98010130  0.80403378  0.83285111     0.37400
N2251       N  0.89439180  0.70295791  0.80172023    -0.42900
N2252       N  0.98893232  0.82201437  0.84488858    -0.42900
C2253       C  0.54712714  0.27179072  0.69406901     0.00700
C2254       C  0.55950651  0.27139985  0.71965860    -0.11200
C2255       C  0.55237130  0.29078079  0.73925798     0.02900
C2256       C  0.53241427  0.31106408  0.73350113     0.00600
C2257       C  0.51990644  0.31112384  0.70794722    -0.11100
C2258       C  0.52699601  0.29179373  0.68845083     0.02800
H2259       H  0.57379427  0.25510012  0.72468775     0.15800
H2260       H  0.50494813  0.32653915  0.70272504     0.15800
C2261       C  0.51170676  0.29159918  0.66350540     0.37500
C2262       C  0.56503104  0.28893340  0.76559602     0.37400
N2263       N  0.49885473  0.29165260  0.64384509    -0.42900
N2264       N  0.57515299  0.28737468  0.78673502    -0.42900
C2265       C  0.57014567  0.21390641  0.59192148     0.00700
C2266       C  0.58511603  0.19476800  0.57639803    -0.11200
C2267       C  0.59866593  0.20226149  0.55248267     0.02900
C2268       C  0.59794912  0.22951152  0.54339482     0.00600
C2269       C  0.58299146  0.24851599  0.55848581    -0.11100
C2270       C  0.56870714  0.24103836  0.58171773     0.02800
H2271       H  0.58556707  0.17354680  0.58226969     0.15800
H2272       H  0.58236087  0.26958646  0.55191088     0.15800
C2273       C  0.55170089  0.26186041  0.59349195     0.37500
C2274       C  0.61364096  0.18167705  0.53784147     0.37400
N2275       N  0.53824321  0.27918484  0.60218371    -0.42900
N2276       N  0.62556624  0.16516598  0.52599659    -0.42900
C2277       C  0.46273612  0.21411049  0.56262147     0.00700
C2278       C  0.43773749  0.20081911  0.56150985    -0.11200
C2279       C  0.41770225  0.20853435  0.54251629     0.02900
C2280       C  0.42298558  0.22892462  0.52332700     0.00600
C2281       C  0.44817583  0.24130276  0.52347484    -0.11100
C2282       C  0.46745645  0.23512256  0.54350679     0.02800
H2283       H  0.43362973  0.18474570  0.57581688     0.15800
H2284       H  0.45193028  0.25752093  0.50916536     0.15800
C2285       C  0.49020028  0.25301648  0.54542319     0.37500
C2286       C  0.39169544  0.19560702  0.54326223     0.37400
N2287       N  0.50805447  0.26788769  0.54669227    -0.42900
N2288       N  0.37075584  0.18541097  0.54384181    -0.42900
C2289       C  0.81327747  0.97964074  0.82729952     0.00700
C2290       C  0.81486953  0.98378215  0.79921089    -0.11200
C2291       C  0.83919031  0.97955344  0.78532000     0.02900
C2292       C  0.86255486  0.97003774  0.79913242     0.00600
C2293       C  0.86124941  0.96546872  0.82701196    -0.11100
C2294       C  0.83707307  0.97045071  0.84124511     0.02800
H2295       H  0.79705758  0.99067229  0.78800696     0.15800
H2296       H  0.87954606  0.95919648  0.83780923     0.15800
C2297       C  0.83808371  0.96777392  0.87023973     0.37500
C2298       C  0.84024110  0.98660227  0.75705974     0.37400
N2299       N  0.83915187  0.96555347  0.89350497    -0.42900
N2300       N  0.84122501  0.99256006  0.73446890    -0.42900
C2301       C  0.72972559  0.94731223  0.90596528     0.00700
C2302       C  0.71230996  0.94677798  0.92847948    -0.11200
C2303       C  0.71622378  0.92800673  0.94990769     0.02900
C2304       C  0.73946784  0.91048808  0.95055236     0.00600
C2305       C  0.75571020  0.91064361  0.92717558    -0.11100
C2306       C  0.74893319  0.92597674  0.90421012     0.02800
H2307       H  0.69528675  0.96103148  0.92920752     0.15800
H2308       H  0.77373503  0.89846202  0.92568068     0.15800
C2309       C  0.75770361  0.91526971  0.87855741     0.37500
C2310       C  0.69478159  0.92621958  0.96933226     0.37400
N2311       N  0.76459259  0.90601932  0.85820183    -0.42900
N2312       N  0.67671224  0.92524978  0.98402515    -0.42900
C2313       C  0.74406444  0.05186064  0.94394662     0.00700
C2314       C  0.72783949  0.07304014  0.95440918    -0.11200
C2315       C  0.73617206  0.08777707  0.97731529     0.02900
C2316       C  0.76124272  0.08154095  0.99020072     0.00600
C2317       C  0.77738425  0.06031257  0.97979521    -0.11100
C2318       C  0.76904793  0.04552074  0.95700077     0.02800
H2319       H  0.70847460  0.07780846  0.94483385     0.15800
H2320       H  0.79696974  0.05581169  0.98900804     0.15800
C2321       C  0.78702859  0.02464000  0.94660868     0.37500
C2322       C  0.71892753  0.10965872  0.98695661     0.37400
N2323       N  0.80136898  0.00784555  0.93822069    -0.42900
N2324       N  0.70506106  0.12713553  0.99475812    -0.42900
C2325       C  0.19724865  0.01969083  0.80075307     0.00700
C2326       C  0.20016354  0.00387227  0.82437291    -0.11200
C2327       C  0.22428809  0.00405285  0.83969585     0.02900
C2328       C  0.24610717  0.02004941  0.83144032     0.00600
C2329       C  0.24360937  0.03529617  0.80759283    -0.11100
C2330       C  0.21956777  0.03507313  0.79216634     0.02800
H2331       H  0.18328106  0.99200856  0.83128100     0.15800
H2332       H  0.26063460  0.04712678  0.80092249     0.15800
C2333       C  0.21859584  0.05000373  0.76706487     0.37500
C2334       C  0.22630220  0.98800675  0.86408323     0.37400
N2335       N  0.21790723  0.06197482  0.74691233    -0.42900
N2336       N  0.22802196  0.97522218  0.88370002    -0.42900
C2337       C  0.29728396  0.96256253  0.95503747     0.00700
C2338       C  0.27184333  0.97459532  0.96100490    -0.11200
C2339       C  0.25458671  0.96332165  0.98023845     0.02900
C2340       C  0.26245643  0.93952220  0.99433672     0.00600
C2341       C  0.28832441  0.92798179  0.98931963    -0.11100
C2342       C  0.30553308  0.93912817  0.96964185     0.02800
H2343       H  0.26521875  0.99275537  0.95017093     0.15800
H2344       H  0.29425297  0.90913134  0.99934232     0.15800
C2345       C  0.33132666  0.92604249  0.96437916     0.37500
C2346       C  0.22814161  0.97565270  0.98433371     0.37400
N2347       N  0.35197595  0.91549244  0.95995366    -0.42900
N2348       N  0.20690178  0.98535248  0.98778633    -0.42900
C2349       C  0.31249073  0.06108328  0.92141956     0.00700
C2350       C  0.28446921  0.06282009  0.92726920    -0.11200
C2351       C  0.27404985  0.07724506  0.94958115     0.02900
C2352       C  0.29150091  0.08913906  0.96880397     0.00600
C2353       C  0.31950891  0.08723490  0.96384587    -0.11100
C2354       C  0.33001472  0.07340303  0.94085734     0.02800
H2355       H  0.27022475  0.05121509  0.91571931     0.15800
H2356       H  0.33333040  0.09667481  0.97799467     0.15800
C2357       C  0.35908953  0.07116816  0.93868363     0.37500
C2358       C  0.24498754  0.07860331  0.95265325     0.37400
N2359       N  0.38246443  0.06954579  0.93718657    -0.42900
N2360       N  0.22165857  0.07916470  0.95489559    -0.42900
C2361       C  0.50860620  0.69018063  0.69458670     0.00700
C2362       C  0.49838517  0.68743321  0.72080003    -0.11200
C2363       C  0.50031821  0.66241494  0.73469087     0.02900
C2364       C  0.51277734  0.63947136  0.72246688     0.00600
C2365       C  0.52336152  0.64242592  0.69634719    -0.11100
C2366       C  0.52149232  0.66745805  0.68252380     0.02800
H2367       H  0.48924419  0.70502617  0.73053893     0.15800
H2368       H  0.53319745  0.62511876  0.68679041     0.15800
C2369       C  0.53409894  0.66988097  0.65647834     0.37500
C2370       C  0.49053698  0.66103982  0.76198998     0.37400
N2371       N  0.54439735  0.67192991  0.63568224    -0.42900
N2372       N  0.48281434  0.65994178  0.78395806    -0.42900
C2373       C  0.47071709  0.76480214  0.60871329     0.00700
C2374       C  0.47271297  0.73858971  0.59709690    -0.11200
C2375       C  0.45959874  0.73196414  0.57269977     0.02900
C2376       C  0.44262082  0.75122281  0.55935279     0.00600
C2377       C  0.44087322  0.77753836  0.57014140    -0.11100
C2378       C  0.45575681  0.78480638  0.59348998     0.02800
H2379       H  0.48622876  0.72346485  0.60599831     0.15800
H2380       H  0.42831908  0.79272196  0.55983753     0.15800
C2381       C  0.45705616  0.81341396  0.59961287     0.37500
C2382       C  0.46368366  0.70491708  0.56199812     0.37400
N2383       N  0.45835283  0.83647318  0.60399839    -0.42900
N2384       N  0.46687562  0.68309203  0.55376242    -0.42900
C2385       C  0.57121755  0.76331829  0.57011897     0.00700
C2386       C  0.59346550  0.77796981  0.56085493    -0.11200
C2387       C  0.60819630  0.76903322  0.53817973     0.02900
C2388       C  0.60003222  0.74575126  0.52367654     0.00600
C2389       C  0.57737786  0.73172604  0.53243053    -0.11100
C2390       C  0.56381001  0.73948160  0.55597383     0.02800
H2391       H  0.59942861  0.79619895  0.57146770     0.15800
H2392       H  0.57176165  0.71315814  0.52219406     0.15800
C2393       C  0.54435962  0.72088910  0.56673181     0.37500
C2394       C  0.63212254  0.78353374  0.53051623     0.37400
N2395       N  0.52922682  0.70552368  0.57540224    -0.42900
N2396       N  0.65135036  0.79506945  0.52434866    -0.42900
C2397       C  0.36810185  0.83985313  0.76332785     0.00700
C2398       C  0.34747398  0.83833919  0.74366789    -0.11200
C2399       C  0.33754301  0.81304548  0.73494842     0.02900
C2400       C  0.34794644  0.78845482  0.74617163     0.00600
C2401       C  0.36844702  0.79004387  0.76605903    -0.11100
C2402       C  0.37857431  0.81537454  0.77452378     0.02800
H2403       H  0.33929464  0.85704250  0.73496487     0.15800
H2404       H  0.37681027  0.77142171  0.77478152     0.15800
C2405       C  0.39980379  0.81591373  0.79469361     0.37500
C2406       C  0.31655964  0.81288337  0.71449462     0.37400
N2407       N  0.41684700  0.81634948  0.81089277    -0.42900
N2408       N  0.29969736  0.81301818  0.69810215    -0.42900
C2409       C  0.34202240  0.87827261  0.80380494     0.00700
C2410       C  0.34202866  0.86015043  0.82551116    -0.11200
C2411       C  0.31816182  0.85569261  0.83929864     0.02900
C2412       C  0.29420017  0.86907818  0.83063616     0.00600
C2413       C  0.29462678  0.88848038  0.80995325    -0.11100
C2414       C  0.31845121  0.89298598  0.79620933     0.02800
H2415       H  0.36057603  0.84950603  0.83153240     0.15800
H2416       H  0.27593901  0.89829917  0.80298354     0.15800
C2417       C  0.31790416  0.91131853  0.77332127     0.37500
C2418       C  0.31845899  0.83717069  0.86196690     0.37400
N2419       N  0.31757213  0.92590823  0.75494045    -0.42900
N2420       N  0.31867939  0.82255374  0.88031894    -0.42900
C2421       C  0.41844658  0.86672141  0.74074148     0.00700
C2422       C  0.40922403  0.86043669  0.71462894    -0.11200
C2423       C  0.42603531  0.84704834  0.69572583     0.02900
C2424       C  0.45245357  0.83741769  0.70327851     0.00600
C2425       C  0.46139409  0.84357370  0.72981270    -0.11100
C2426       C  0.44503487  0.85841196  0.74808204     0.02800
H2427       H  0.38882101  0.86667270  0.70869891     0.15800
H2428       H  0.48122989  0.83668153  0.73668302     0.15800
C2429       C  0.45581532  0.86428766  0.77458667     0.37500
C2430       C  0.41583796  0.84521281  0.66842799     0.37400
N2431       N  0.46455275  0.86910888  0.79577663    -0.42900
N2432       N  0.40735827  0.84414447  0.64658911    -0.42900
C2433       C  0.37270776  0.93112834  0.81175243     0.00700
C2434       C  0.36270628  0.95623363  0.80180504    -0.11200
C2435       C  0.35236315  0.97697794  0.81915274     0.02900
C2436       C  0.35171867  0.97352814  0.84792476     0.00600
C2437       C  0.36284059  0.94861819  0.85773047    -0.11100
C2438       C  0.37298297  0.92788028  0.84027734     0.02800
H2439       H  0.36227564  0.95945929  0.78013394     0.15800
H2440       H  0.36425953  0.94525149  0.87928418     0.15800
C2441       C  0.38469288  0.90363090  0.85239092     0.37500
C2442       C  0.34227090  0.00160350  0.80635574     0.37400
N2443       N  0.39420668  0.88427338  0.86220643    -0.42900
N2444       N  0.33421799  0.02129978  0.79596448    -0.42900
C2445       C  0.46044790  0.96498172  0.75647653     0.00700
C2446       C  0.44545067  0.95440430  0.73486741    -0.11200
C2447       C  0.42471783  0.93601284  0.73961119     0.02900
C2448       C  0.41980954  0.92708629  0.76620413     0.00600
C2449       C  0.43331040  0.93914150  0.78779852    -0.11100
C2450       C  0.45282686  0.95854570  0.78334044     0.02800
H2451       H  0.45026347  0.95997938  0.71428370     0.15800
H2452       H  0.42892407  0.93303257  0.80834832     0.15800
C2453       C  0.46462023  0.97111428  0.80698189     0.37500
C2454       C  0.40798572  0.92786153  0.71711762     0.37400
N2455       N  0.47398458  0.98110132  0.82596112    -0.42900
N2456       N  0.39443020  0.92195270  0.69893927    -0.42900
C2457       C  0.67634124  0.75585438  0.73311522     0.00700
C2458       C  0.67711515  0.77800583  0.71528962    -0.11200
C2459       C  0.66304558  0.80189244  0.72109706     0.02900
C2460       C  0.64795584  0.80347864  0.74490447     0.00600
C2461       C  0.64767655  0.78172077  0.76310124    -0.11100
C2462       C  0.66168708  0.75767130  0.75726233     0.02800
H2463       H  0.68854231  0.77651350  0.69670117     0.15800
H2464       H  0.63634385  0.78364180  0.78167405     0.15800
C2465       C  0.66156395  0.73572548  0.77663422     0.37500
C2466       C  0.66501788  0.82483379  0.70301093     0.37400
N2467       N  0.66142276  0.71832110  0.79238871    -0.42900
N2468       N  0.66680514  0.84331135  0.68865811    -0.42900
C2469       C  0.67176478  0.84555216  0.77950171     0.00700
C2470       C  0.69257516  0.85537311  0.76345216    -0.11200
C2471       C  0.71929164  0.85361823  0.77222683     0.02900
C2472       C  0.72542271  0.84029413  0.79668666     0.00600
C2473       C  0.70457241  0.83154306  0.81349340    -0.11100
C2474       C  0.67754544  0.83449442  0.80512962     0.02800
H2475       H  0.68803466  0.86323287  0.74346482     0.15800
H2476       H  0.70949161  0.82059495  0.83199740     0.15800
C2477       C  0.65628802  0.82453673  0.82212551     0.37500
C2478       C  0.74037890  0.86307376  0.75461186     0.37400
N2479       N  0.63914892  0.81653539  0.83563866    -0.42900
N2480       N  0.75734141  0.87063932  0.74062422    -0.42900
C2481       C  0.59561271  0.82450003  0.71674275     0.00700
C2482       C  0.59023440  0.79656943  0.71938697    -0.11200
C2483       C  0.57467505  0.78273264  0.69995310     0.02900
C2484       C  0.55841761  0.79765847  0.68119266     0.00600
C2485       C  0.56547345  0.82497561  0.67712657    -0.11100
C2486       C  0.58551116  0.83744843  0.69297046     0.02800
H2487       H  0.59952981  0.78489140  0.73560896     0.15800
H2488       H  0.55633628  0.83617957  0.66037210     0.15800
C2489       C  0.59867026  0.86043872  0.68114440     0.37500
C2490       C  0.58205686  0.75466623  0.69524710     0.37400
N2491       N  0.60944911  0.87799868  0.67024280    -0.42900
N2492       N  0.58882333  0.73236923  0.69123172    -0.42900
C2493       C  0.63690295  0.89639503  0.78100193     0.00700
C2494       C  0.62911646  0.89848312  0.80817858    -0.11200
C2495       C  0.64056040  0.91789053  0.82555926     0.02900
C2496       C  0.66004751  0.93612333  0.81586232     0.00600
C2497       C  0.66691567  0.93495888  0.78846126    -0.11100
C2498       C  0.65606814  0.91514321  0.77121591     0.02800
H2499       H  0.61508043  0.88388842  0.81625326     0.15800
H2500       H  0.68213174  0.94858482  0.78088828     0.15800
C2501       C  0.66679748  0.91356170  0.74427577     0.37500
C2502       C  0.63236828  0.91842778  0.85344538     0.37400
N2503       N  0.67594607  0.91269002  0.72283834    -0.42900
N2504       N  0.62591695  0.91882944  0.87585838    -0.42900
C2505       C  0.59105931  0.88551565  0.73647125     0.00700
C2506       C  0.60255268  0.90663255  0.72200124    -0.11200
C2507       C  0.58715029  0.92911513  0.71491525     0.02900
C2508       C  0.56034060  0.93054227  0.72368681     0.00600
C2509       C  0.54767443  0.90795346  0.73482434    -0.11100
C2510       C  0.56307899  0.88490770  0.74108815     0.02800
H2511       H  0.62361840  0.90554255  0.71644644     0.15800
H2512       H  0.52669211  0.90944334  0.74116631     0.15800
C2513       C  0.55039142  0.86213381  0.75401153     0.37500
C2514       C  0.60016799  0.95164894  0.70189584     0.37400
N2515       N  0.54008319  0.84381556  0.76410369    -0.42900
N2516       N  0.61085166  0.96948889  0.69139944    -0.42900
C2517       C  0.67979170  0.17028796  0.74359240     0.00700
C2518       C  0.69195819  0.17680709  0.71893040    -0.11200
C2519       C  0.69601477  0.20408576  0.71141679     0.02900
C2520       C  0.68740661  0.22545230  0.72863217     0.00600
C2521       C  0.67473288  0.21864134  0.75302917    -0.11100
C2522       C  0.67103095  0.19152479  0.76059623     0.02800
H2523       H  0.69855310  0.16047054  0.70571470     0.15800
H2524       H  0.66799850  0.23464629  0.76659436     0.15800
C2525       C  0.65762581  0.18614873  0.78571817     0.37500
C2526       C  0.70828943  0.20948215  0.68568770     0.37400
N2527       N  0.64657436  0.18251799  0.80587863    -0.42900
N2528       N  0.71812769  0.21362494  0.66498989    -0.42900
C2529       C  0.71461237  0.14001848  0.78445824     0.00700
C2530       C  0.73688172  0.14624996  0.76833376    -0.11200
C2531       C  0.76021683  0.15710540  0.77976779     0.02900
C2532       C  0.76140716  0.16121847  0.80790634     0.00600
C2533       C  0.73862781  0.15636676  0.82372590    -0.11100
C2534       C  0.71509921  0.14620635  0.81220025     0.02800
H2535       H  0.73618280  0.14211707  0.74681952     0.15800
H2536       H  0.73948127  0.15998944  0.84533673     0.15800
C2537       C  0.69187669  0.14332582  0.82934174     0.37500
C2538       C  0.78305498  0.16218355  0.76250719     0.37400
N2539       N  0.67369156  0.14176918  0.84383495    -0.42900
N2540       N  0.80128573  0.16634580  0.74863574    -0.42900
C2541       C  0.63790791  0.13171552  0.72027048     0.00700
C2542       C  0.64162776  0.12425656  0.69318841    -0.11200
C2543       C  0.62140326  0.12969813  0.67365840     0.02900
C2544       C  0.59746649  0.14393231  0.68085386     0.00600
C2545       C  0.59375074  0.15117337  0.70805094    -0.11100
C2546       C  0.61336186  0.14465341  0.72775710     0.02800
H2547       H  0.66010809  0.11356998  0.68742950     0.15800
H2548       H  0.57536868  0.16189865  0.71399811     0.15800
C2549       C  0.60700694  0.15032116  0.75556988     0.37500
C2550       C  0.62475574  0.11897006  0.64679961     0.37400
N2551       N  0.60092702  0.15472470  0.77766682    -0.42900
N2552       N  0.62718139  0.11002779  0.62533747    -0.42900
C2553       C  0.69249853  0.07956227  0.79244404     0.00700
C2554       C  0.68260650  0.07915855  0.81887175    -0.11200
C2555       C  0.68968309  0.05841847  0.83742251     0.02900
C2556       C  0.70926672  0.03796655  0.83081795     0.00600
C2557       C  0.71786366  0.03740222  0.80356166    -0.11100
C2558       C  0.70967506  0.05771348  0.78462837     0.02800
H2559       H  0.66804300  0.09446387  0.82484087     0.15800
H2560       H  0.73006074  0.02041031  0.79648352     0.15800
C2561       C  0.71838690  0.05520970  0.75699662     0.37500
C2562       C  0.67440292  0.05762088  0.86211715     0.37400
N2563       N  0.72513400  0.05312188  0.73476030    -0.42900
N2564       N  0.66181019  0.05701756  0.88171244    -0.42900
C2565       C  0.64263255  0.07772528  0.75064651     0.00700
C2566       C  0.63961054  0.06442187  0.72570761    -0.11200
C2567       C  0.61748723  0.04754645  0.72092477     0.02900
C2568       C  0.59949740  0.04238077  0.74212920     0.00600
C2569       C  0.60286144  0.05574126  0.76695294    -0.11100
C2570       C  0.62337477  0.07408022  0.77095361     0.02800
H2571       H  0.65373408  0.06835016  0.70958043     0.15800
H2572       H  0.58820444  0.05320806  0.78294493     0.15800
C2573       C  0.62172178  0.09127141  0.79452689     0.37500
C2574       C  0.61304270  0.03710662  0.69409182     0.37400
N2575       N  0.61926463  0.10517498  0.81321513    -0.42900
N2576       N  0.60927112  0.02935706  0.67235025    -0.42900
C2577       C  0.38223853  0.17183431  0.78172885     0.00700
C2578       C  0.36217744  0.17294273  0.76160710    -0.11200
C2579       C  0.33687187  0.18401445  0.76695737     0.02900
C2580       C  0.33123964  0.19302270  0.79323281     0.00600
C2581       C  0.35077181  0.19066997  0.81385590    -0.11100
C2582       C  0.37654844  0.18036136  0.80814754     0.02800
H2583       H  0.36656900  0.16561706  0.74145007     0.15800
H2584       H  0.34587648  0.19702384  0.83423901     0.15800
C2585       C  0.39690261  0.17946357  0.82925649     0.37500
C2586       C  0.31684822  0.18500978  0.74543590     0.37400
N2587       N  0.41325780  0.17883968  0.84615940    -0.42900
N2588       N  0.30094508  0.18575920  0.72810556    -0.42900
C2589       C  0.41187732  0.20262035  0.74225678     0.00700
C2590       C  0.39889191  0.20155422  0.71705710    -0.11200
C2591       C  0.37945530  0.22133214  0.70997797     0.02900
C2592       C  0.37328573  0.24246532  0.72829608     0.00600
C2593       C  0.38842792  0.24503826  0.75213061    -0.11100
C2594       C  0.40767393  0.22526779  0.75919682     0.02800
H2595       H  0.40229076  0.18410921  0.70407718     0.15800
H2596       H  0.38475675  0.26216242  0.76548881     0.15800
C2597       C  0.42206039  0.22767373  0.78457061     0.37500
C2598       C  0.36646877  0.21981950  0.68376961     0.37400
N2599       N  0.43382172  0.22970197  0.80477287    -0.42900
N2600       N  0.35616460  0.21882758  0.66271008    -0.42900
C2601       C  0.46059568  0.16801059  0.72019739     0.00700
C2602       C  0.46805935  0.14700238  0.70207939    -0.11200
C2603       C  0.48342646  0.15216148  0.67860318     0.02900
C2604       C  0.49039361  0.17914752  0.67168994     0.00600
C2605       C  0.47807137  0.19995952  0.68695029    -0.11100
C2606       C  0.46732452  0.19476521  0.71250455     0.02800
H2607       H  0.46216332  0.12641319  0.70604416     0.15800
H2608       H  0.47988260  0.22092898  0.68058538     0.15800
C2609       C  0.46818860  0.21681633  0.73160556     0.37500
C2610       C  0.49008691  0.12959015  0.66116685     0.37400
N2611       N  0.47021525  0.23480798  0.74645725    -0.42900
N2612       N  0.49528092  0.11140719  0.64720819    -0.42900
C2613       C  0.41137440  0.11802579  0.79723813     0.00700
C2614       C  0.42394033  0.11318668  0.82248380    -0.11200
C2615       C  0.41293376  0.09486792  0.84130429     0.02900
C2616       C  0.38946270  0.08019448  0.83472380     0.00600
C2617       C  0.37723097  0.08457685  0.80941016    -0.11100
C2618       C  0.38756231  0.10346884  0.79096713     0.02800
H2619       H  0.44189023  0.12443312  0.82787424     0.15800
H2620       H  0.35903930  0.07358203  0.80434506     0.15800
C2621       C  0.37280584  0.10752411  0.76598490     0.37500
C2622       C  0.42575101  0.09166649  0.86741709     0.37400
N2623       N  0.36028515  0.11027574  0.74625520    -0.42900
N2624       N  0.43598457  0.08926642  0.88843343    -0.42900
C2625       C  0.46156035  0.11569497  0.76001226     0.00700
C2626       C  0.48567023  0.11542238  0.77518991    -0.11200
C2627       C  0.50158388  0.09177377  0.77655935     0.02900
C2628       C  0.49261813  0.06867816  0.76282012     0.00600
C2629       C  0.46767924  0.06875783  0.74914200    -0.11100
C2630       C  0.45228241  0.09222681  0.74721471     0.02800
H2631       H  0.49190079  0.13355530  0.78585181     0.15800
H2632       H  0.46097217  0.05069642  0.73857426     0.15800
C2633       C  0.42815512  0.09210849  0.73043526     0.37500
C2634       C  0.52704810  0.09185883  0.79113893     0.37400
N2635       N  0.40939373  0.09174565  0.71625902    -0.42900
N2636       N  0.54739333  0.09191902  0.80295747    -0.42900
C2637       C  0.68387402  0.47940739  0.27346527     0.00700
C2638       C  0.67145261  0.47500993  0.29834685    -0.11200
C2639       C  0.68715944  0.47126345  0.32165607     0.02900
C2640       C  0.71557970  0.47182550  0.31999810     0.00600
C2641       C  0.72800710  0.47453111  0.29491182    -0.11100
C2642       C  0.71238306  0.47862501  0.27163768     0.02800
H2643       H  0.64952003  0.47529672  0.29956886     0.15800
H2644       H  0.74989529  0.47594312  0.29402128     0.15800
C2645       C  0.72595226  0.48459321  0.24666459     0.37500
C2646       C  0.67384409  0.46959495  0.34739702     0.37400
N2647       N  0.73685136  0.48956348  0.22670028    -0.42900
N2648       N  0.66299265  0.46882464  0.36799654    -0.42900
C2649       C  0.54321211  0.56174268  0.23177578     0.00700
C2650       C  0.55693012  0.54486635  0.25028439    -0.11200
C2651       C  0.58039536  0.53014511  0.24308031     0.02900
C2652       C  0.59204849  0.53356396  0.21692657     0.00600
C2653       C  0.57780877  0.55078982  0.19861681    -0.11100
C2654       C  0.55369146  0.56439806  0.20564338     0.02800
H2655       H  0.54897288  0.54295038  0.27055814     0.15800
H2656       H  0.58461701  0.55252506  0.17795657     0.15800
C2657       C  0.53980156  0.58049176  0.18527713     0.37500
C2658       C  0.58911393  0.50928652  0.26197722     0.37400
N2659       N  0.52909069  0.59315183  0.16845284    -0.42900
N2660       N  0.59501380  0.49238902  0.27738387    -0.42900
C2661       C  0.56544465  0.43220266  0.22592286     0.00700
C2662       C  0.57790374  0.40771768  0.23495631    -0.11200
C2663       C  0.56723266  0.39307602  0.25663068     0.02900
C2664       C  0.54565590  0.40442294  0.27178095     0.00600
C2665       C  0.53307940  0.42848777  0.26254026    -0.11100
C2666       C  0.54110512  0.44080536  0.23865108     0.02800
H2667       H  0.59577978  0.39960694  0.22517133     0.15800
H2668       H  0.51520121  0.43632672  0.27274844     0.15800
C2669       C  0.52266842  0.46067781  0.22669412     0.37500
C2670       C  0.57861590  0.36644236  0.26278516     0.37400
N2671       N  0.50814529  0.47675802  0.21700736    -0.42900
N2672       N  0.58785997  0.34519007  0.26778266    -0.42900
C2673       C  0.81947411  0.78515075  0.00114631     0.00700
C2674       C  0.83052105  0.81118730  0.00383495    -0.11200
C2675       C  0.81387244  0.83459227  0.00415617     0.02900
C2676       C  0.78556359  0.83235881  0.00069354     0.00600
C2677       C  0.77437517  0.80654775  0.99873833    -0.11100
C2678       C  0.79080830  0.78304044  0.99972366     0.02800
H2679       H  0.85227710  0.81344872  0.00512492     0.15800
H2680       H  0.75259436  0.80488151  0.99638197     0.15800
C2681       C  0.77737308  0.75722498  0.00028344     0.37500
C2682       C  0.82657437  0.86064293  0.00675540     0.37400
N2683       N  0.76628382  0.73669076  0.00076986    -0.42900
N2684       N  0.83715124  0.88138292  0.00858888    -0.42900
C2685       C  0.97620834  0.72714763  0.87594862     0.00700
C2686       C  0.95930537  0.74955733  0.88225891    -0.11200
C2687       C  0.94041113  0.74774620  0.90274218     0.02900
C2688       C  0.93873197  0.72345065  0.91723937     0.00600
C2689       C  0.95385046  0.70039343  0.90966732    -0.11100
C2690       C  0.97251367  0.70200274  0.88884441     0.02800
H2691       H  0.96227070  0.76910743  0.87283115     0.15800
H2692       H  0.95140005  0.68142862  0.92051752     0.15800
C2693       C  0.98791503  0.67795420  0.88143194     0.37500
C2694       C  0.92386956  0.77123611  0.90951957     0.37400
N2695       N  0.00023742  0.65865536  0.87548332    -0.42900
N2696       N  0.91056008  0.79006766  0.91486622    -0.42900
C2697       C  0.92428579  0.72882491  0.02998139     0.00700
C2698       C  0.95052035  0.71646575  0.02876709    -0.11200
C2699       C  0.97282156  0.72512232  0.04512808     0.02900
C2700       C  0.97074076  0.74901144  0.06133541     0.00600
C2701       C  0.94510812  0.76250682  0.05995079    -0.11100
C2702       C  0.92183986  0.75048075  0.04861167     0.02800
H2703       H  0.95327998  0.69881828  0.01591286     0.15800
H2704       H  0.94208228  0.78179392  0.06976264     0.15800
C2705       C  0.89665029  0.75636539  0.06210203     0.37500
C2706       C  0.99654604  0.70767694  0.04572058     0.37400
N2707       N  0.87681655  0.76070787  0.07379502    -0.42900
N2708       N  0.01472443  0.69246834  0.04551789    -0.42900
C2709       C  0.80836036  0.16484066  0.02159485     0.00700
C2710       C  0.83584627  0.16512380  0.01446022    -0.11200
C2711       C  0.84910865  0.18965706  0.00905608     0.02900
C2712       C  0.83504681  0.21495821  0.01095901     0.00600
C2713       C  0.80749712  0.21469551  0.01814735    -0.11100
C2714       C  0.79420884  0.19003397  0.02341039     0.02800
H2715       H  0.84685945  0.14597237  0.01256029     0.15800
H2716       H  0.79640623  0.23384373  0.01988694     0.15800
C2717       C  0.76575437  0.19092379  0.02977816     0.37500
C2718       C  0.87681637  0.18813239  0.00012599     0.37400
N2719       N  0.74290339  0.19166473  0.03486270    -0.42900
N2720       N  0.89897999  0.18653215  0.99277160    -0.42900
C2721       C  0.00617252  0.26630146  0.93360109     0.00700
C2722       C  0.99232827  0.25218685  0.95351772    -0.11200
C2723       C  0.96691437  0.26121139  0.96216026     0.02900
C2724       C  0.95553779  0.28607753  0.95234715     0.00600
C2725       C  0.96894462  0.29993033  0.93183903    -0.11100
C2726       C  0.99361861  0.28966902  0.92173788     0.02800
H2727       H  0.00057064  0.23292999  0.96095169     0.15800
H2728       H  0.96035351  0.31886424  0.92406608     0.15800
C2729       C  0.00553909  0.30315136  0.89889138     0.37500
C2730       C  0.95260589  0.24430671  0.98095987     0.37400
N2731       N  0.01528416  0.31405243  0.88076179    -0.42900
N2732       N  0.94121654  0.23097895  0.99625976    -0.42900
C2733       C  0.91718020  0.28803009  0.05243329     0.00700
C2734       C  0.94225541  0.30148427  0.05608612    -0.11200
C2735       C  0.96358423  0.29159177  0.07361147     0.02900
C2736       C  0.96111922  0.26688344  0.08854350     0.00600
C2737       C  0.93541722  0.25451890  0.08553298    -0.11100
C2738       C  0.91338150  0.26619294  0.07062072     0.02800
H2739       H  0.94543696  0.32013456  0.04494617     0.15800
H2740       H  0.93156058  0.23547705  0.09522052     0.15800
C2741       C  0.88654910  0.25825803  0.07840390     0.37500
C2742       C  0.98708248  0.30831903  0.07596412     0.37400
N2743       N  0.86517580  0.25193571  0.08520803    -0.42900
N2744       N  0.00516018  0.32295410  0.07689163    -0.42900
C2745       C  0.70505501  0.48752868  0.69565140     0.00700
C2746       C  0.69063155  0.48982912  0.67079547    -0.11200
C2747       C  0.70403390  0.49002388  0.64523036     0.02900
C2748       C  0.73270148  0.48727433  0.64340590     0.00600
C2749       C  0.74711838  0.48583369  0.66810221    -0.11100
C2750       C  0.73392555  0.48652992  0.69361507     0.02800
H2751       H  0.66869272  0.49113893  0.67124663     0.15800
H2752       H  0.76906286  0.48459924  0.66745385     0.15800
C2753       C  0.75085300  0.48792658  0.71744031     0.37500
C2754       C  0.68787990  0.49291711  0.62097162     0.37400
N2755       N  0.76443614  0.48923921  0.73655998    -0.42900
N2756       N  0.67493909  0.49515603  0.60145259    -0.42900
C2757       C  0.55195099  0.39364428  0.78681890     0.00700
C2758       C  0.56582465  0.40907457  0.76791663    -0.11200
C2759       C  0.58773732  0.42430870  0.77588138     0.02900
C2760       C  0.59383251  0.42719824  0.80358993     0.00600
C2761       C  0.57806314  0.41421509  0.82292455    -0.11100
C2762       C  0.55736941  0.39688024  0.81462026     0.02800
H2763       H  0.56108777  0.40726681  0.74658090     0.15800
H2764       H  0.58232942  0.41718307  0.84421571     0.15800
C2765       C  0.54271711  0.38183133  0.83464130     0.37500
C2766       C  0.60461753  0.43569678  0.75518653     0.37400
N2767       N  0.53081228  0.36972310  0.85054843    -0.42900
N2768       N  0.61828011  0.44449277  0.73854997    -0.42900
C2769       C  0.61522526  0.52556937  0.77093718     0.00700
C2770       C  0.59119419  0.51340432  0.75983876    -0.11200
C2771       C  0.56500230  0.52734838  0.75617249     0.02900
C2772       C  0.56036316  0.55509816  0.76366336     0.00600
C2773       C  0.58454984  0.56727962  0.77387291    -0.11100
C2774       C  0.61106736  0.55417970  0.77490606     0.02800
H2775       H  0.59266898  0.49230432  0.75387121     0.15800
H2776       H  0.58345790  0.58854086  0.77932731     0.15800
C2777       C  0.63358763  0.57217976  0.77264161     0.37500
C2778       C  0.54333508  0.51266661  0.74364217     0.37400
N2779       N  0.65110245  0.58721758  0.76963636    -0.42900
N2780       N  0.52604385  0.50078353  0.73341598    -0.42900
C2781       C  0.76277833  0.34976749  0.82484160     0.00700
C2782       C  0.77957437  0.34066210  0.80398257    -0.11200
C2783       C  0.76928907  0.32490660  0.78305312     0.02900
C2784       C  0.74166242  0.31752051  0.78344067     0.00600
C2785       C  0.72569204  0.32493251  0.80578595    -0.11100
C2786       C  0.73578936  0.34145733  0.82595753     0.02800
H2787       H  0.80075439  0.34618782  0.80409984     0.15800
H2788       H  0.70467780  0.31898332  0.80701687     0.15800
C2789       C  0.71837565  0.34881178  0.84818841     0.37500
C2790       C  0.78743996  0.31766158  0.76136554     0.37400
N2791       N  0.70449344  0.35458117  0.86608599    -0.42900
N2792       N  0.80211931  0.31205607  0.74404918    -0.42900
C2793       C  0.82948729  0.27153671  0.84914980     0.00700
C2794       C  0.80169362  0.27289156  0.85503249    -0.11200
C2795       C  0.78855852  0.29785620  0.86016353     0.02900
C2796       C  0.80326580  0.32227758  0.85925320     0.00600
C2797       C  0.83074427  0.32111466  0.85245550    -0.11100
C2798       C  0.84391562  0.29614777  0.84735312     0.02800
H2799       H  0.79040422  0.25426232  0.85684447     0.15800
H2800       H  0.84198836  0.33982675  0.85131808     0.15800
C2801       C  0.87208659  0.29655323  0.83970608     0.37500
C2802       C  0.76097732  0.29739027  0.86956673     0.37400
N2803       N  0.89465245  0.29683102  0.83353294    -0.42900
N2804       N  0.73905975  0.29637669  0.87758657    -0.42900
C2805       C  0.74554389  0.40870475  0.84224375     0.00700
C2806       C  0.72377936  0.42285289  0.85515135    -0.11200
C2807       C  0.70543350  0.44193115  0.84152305     0.02900
C2808       C  0.70619948  0.44753602  0.81287601     0.00600
C2809       C  0.72811253  0.43347966  0.80009813    -0.11100
C2810       C  0.74742061  0.41560239  0.81404861     0.02800
H2811       H  0.72075640  0.41909354  0.87644716     0.15800
H2812       H  0.73127541  0.43697691  0.77896180     0.15800
C2813       C  0.77060760  0.40657915  0.79878781     0.37500
C2814       C  0.68590799  0.45598803  0.85820481     0.37400
N2815       N  0.78926009  0.40006634  0.78617731    -0.42900
N2816       N  0.67039979  0.46737350  0.87169665    -0.42900
C2817       C  0.80947320  0.35163113  0.91643420     0.00700
C2818       C  0.81414342  0.32310532  0.92016170    -0.11200
C2819       C  0.83214731  0.31122951  0.93992731     0.02900
C2820       C  0.84326392  0.32663064  0.96148895     0.00600
C2821       C  0.83830573  0.35524958  0.95867157    -0.11100
C2822       C  0.82275531  0.36753995  0.93670697     0.02800
H2823       H  0.80403773  0.30902407  0.90732270     0.15800
H2824       H  0.84756795  0.36855863  0.97337215     0.15800
C2825       C  0.82244255  0.39677256  0.93518085     0.37500
C2826       C  0.84124843  0.28365452  0.93504255     0.37400
N2827       N  0.82298996  0.42029008  0.93464019    -0.42900
N2828       N  0.84881620  0.26175255  0.93033726    -0.42900
C2829       C  0.76772731  0.40683195  0.90433186     0.00700
C2830       C  0.77249023  0.43415248  0.89859923    -0.11200
C2831       C  0.76402745  0.45416000  0.91642175     0.02900
C2832       C  0.75050792  0.44660265  0.94007429     0.00600
C2833       C  0.74427126  0.41945109  0.94506947    -0.11100
C2834       C  0.75279420  0.39934626  0.92716992     0.02800
H2835       H  0.78336137  0.43970937  0.88050414     0.15800
H2836       H  0.73420016  0.41387091  0.96361306     0.15800
C2837       C  0.74614069  0.37136645  0.93254048     0.37500
C2838       C  0.77054422  0.48212863  0.91075169     0.37400
N2839       N  0.74095498  0.34888015  0.93664947    -0.42900
N2840       N  0.77582674  0.50448367  0.90613064    -0.42900
C2841       C  0.75434774  0.65137794  0.82714998     0.00700
C2842       C  0.76936246  0.64195774  0.80494935    -0.11200
C2843       C  0.76010413  0.64653545  0.77825290     0.02900
C2844       C  0.73502417  0.66015961  0.77334911     0.00600
C2845       C  0.71968569  0.66871676  0.79563142    -0.11100
C2846       C  0.72923922  0.66473106  0.82224422     0.02800
H2847       H  0.78853500  0.63137976  0.80854404     0.15800
H2848       H  0.70080784  0.67982357  0.79218537     0.15800
C2849       C  0.71354118  0.67571651  0.84418263     0.37500
C2850       C  0.77665032  0.63712621  0.75614610     0.37400
N2851       N  0.70083473  0.68491046  0.86156141    -0.42900
N2852       N  0.78986897  0.62948437  0.73841792    -0.42900
C2853       C  0.78877406  0.68915723  0.86011807     0.00700
C2854       C  0.80546005  0.69062813  0.83745377    -0.11200
C2855       C  0.80533347  0.71400750  0.82137948     0.02900
C2856       C  0.78831999  0.73630884  0.82824183     0.00600
C2857       C  0.77349925  0.73549651  0.85224352    -0.11100
C2858       C  0.77339431  0.71211351  0.86805131     0.02800
H2859       H  0.81710757  0.67280078  0.83127100     0.15800
H2860       H  0.76080719  0.75275336  0.85802407     0.15800
C2861       C  0.75495195  0.71150662  0.89046750     0.37500
C2862       C  0.82254489  0.71440224  0.79797128     0.37400
N2863       N  0.73958858  0.71182068  0.90797335    -0.42900
N2864       N  0.83626358  0.71475294  0.77915071    -0.42900
C2865       C  0.74178161  0.60216207  0.86053369     0.00700
C2866       C  0.75477345  0.58333010  0.84364472    -0.11200
C2867       C  0.74041031  0.56212888  0.83179224     0.02900
C2868       C  0.71254313  0.55914413  0.83736258     0.00600
C2869       C  0.69957100  0.57812259  0.85423841    -0.11100
C2870       C  0.71387145  0.59965837  0.86566085     0.02800
H2871       H  0.77606565  0.58572899  0.83906147     0.15800
H2872       H  0.67813197  0.57619428  0.85827812     0.15800
C2873       C  0.69919991  0.61921724  0.88185570     0.37500
C2874       C  0.75430553  0.54499744  0.81252209     0.37400
N2875       N  0.68713224  0.63464725  0.89490639    -0.42900
N2876       N  0.76549594  0.53140394  0.79697723    -0.42900
C2877       C  0.80476690  0.66064431  0.91706473     0.00700
C2878       C  0.83277284  0.65598692  0.91432334    -0.11200
C2879       C  0.85134441  0.66367161  0.93468421     0.02900
C2880       C  0.84278055  0.68029721  0.95664602     0.00600
C2881       C  0.81446231  0.68230410  0.96063695    -0.11100
C2882       C  0.79569073  0.67205082  0.94164184     0.02800
H2883       H  0.84008899  0.64507221  0.89675869     0.15800
H2884       H  0.80677741  0.69109536  0.97912399     0.15800
C2885       C  0.76733623  0.67254098  0.94845929     0.37500
C2886       C  0.87852388  0.65236161  0.93343476     0.37400
N2887       N  0.74469999  0.67263488  0.95440549    -0.42900
N2888       N  0.90023757  0.64310212  0.93244537    -0.42900
C2889       C  0.75948139  0.56159179  0.94947823     0.00700
C2890       C  0.78460520  0.56467364  0.93668768    -0.11200
C2891       C  0.78926055  0.58696063  0.91998927     0.02900
C2892       C  0.76887903  0.60701850  0.91659913     0.00600
C2893       C  0.74442952  0.60485343  0.93037177    -0.11100
C2894       C  0.73920234  0.58210731  0.94619946     0.02800
H2895       H  0.80043956  0.54922770  0.93905765     0.15800
H2896       H  0.72903106  0.62068006  0.92807662     0.15800
C2897       C  0.71293546  0.58071130  0.95874602     0.37500
C2898       C  0.81454904  0.58813570  0.90563744     0.37400
N2899       N  0.69187635  0.57977975  0.96878999    -0.42900
N2900       N  0.83485328  0.58888749  0.89416486    -0.42900
C2901       C  0.75085300  0.65248346  0.17067789     0.00700
C2902       C  0.76687739  0.66459302  0.19062215    -0.11200
C2903       C  0.75530896  0.68193427  0.20944386     0.02900
C2904       C  0.72688876  0.68488312  0.20988576     0.00600
C2905       C  0.71137755  0.67583699  0.18788569    -0.11100
C2906       C  0.72337661  0.66015744  0.16778721     0.02800
H2907       H  0.78854917  0.66040834  0.19149179     0.15800
H2908       H  0.68962953  0.67957443  0.18733090     0.15800
C2909       C  0.70739594  0.65318646  0.14433808     0.37500
C2910       C  0.77295383  0.69533056  0.22847151     0.37400
N2911       N  0.69438832  0.64819478  0.12548387    -0.42900
N2912       N  0.78726824  0.70641609  0.24327646    -0.42900
C2913       C  0.79319935  0.67254541  0.13505780     0.00700
C2914       C  0.77324658  0.69062203  0.12488938    -0.11200
C2915       C  0.77748333  0.71849021  0.12483447     0.02900
C2916       C  0.80212221  0.72840526  0.13475584     0.00600
C2917       C  0.82305171  0.71023801  0.14259505    -0.11100
C2918       C  0.81864264  0.68224991  0.14293638     0.02800
H2919       H  0.75397499  0.68284196  0.11799124     0.15800
H2920       H  0.84186242  0.71801494  0.15075230     0.15800
C2921       C  0.83937749  0.66404773  0.15359598     0.37500
C2922       C  0.75585680  0.73667991  0.11595302     0.37400
N2923       N  0.85593740  0.64941375  0.16226105    -0.42900
N2924       N  0.73859752  0.75133157  0.10881254    -0.42900
C2925       C  0.68727780  0.56086966  0.15798370     0.00700
C2926       C  0.70419924  0.56848512  0.17959668    -0.11200
C2927       C  0.72704226  0.58469749  0.17520927     0.02900
C2928       C  0.73289965  0.59404174  0.14892533     0.00600
C2929       C  0.71507106  0.58727559  0.12770474    -0.11100
C2930       C  0.69297011  0.57036579  0.13190925     0.02800
H2931       H  0.70008114  0.56090803  0.19969478     0.15800
H2932       H  0.71839860  0.59508823  0.10760669     0.15800
C2933       C  0.67645820  0.56264470  0.10909641     0.37500
C2934       C  0.74487745  0.59039714  0.19766866     0.37400
N2935       N  0.66333903  0.55628068  0.09075903    -0.42900
N2936       N  0.75928942  0.59498138  0.21559516    -0.42900
C2937       C  0.81291562  0.62998670  0.09791435     0.00700
C2938       C  0.80550061  0.65078686  0.07987183    -0.11200
C2939       C  0.82412736  0.66118958  0.06198878     0.02900
C2940       C  0.85016899  0.64915337  0.06012237     0.00600
C2941       C  0.85750015  0.62752754  0.07738803    -0.11100
C2942       C  0.83909433  0.61812416  0.09662671     0.02800
H2943       H  0.78539747  0.65999593  0.08077606     0.15800
H2944       H  0.87753387  0.61825181  0.07591327     0.15800
C2945       C  0.84761267  0.59707385  0.11535828     0.37500
C2946       C  0.81647507  0.68536859  0.04705929     0.37400
N2947       N  0.85436917  0.58026481  0.13050723    -0.42900
N2948       N  0.80982522  0.70509610  0.03589608    -0.42900
C2949       C  0.77139183  0.58428777  0.10116966     0.00700
C2950       C  0.76260058  0.59541719  0.07646630    -0.11200
C2951       C  0.75406646  0.57870261  0.05579797     0.02900
C2952       C  0.75398113  0.55054651  0.06017834     0.00600
C2953       C  0.76193486  0.53934892  0.08508886    -0.11100
C2954       C  0.77060567  0.55615204  0.10579348     0.02800
H2955       H  0.76168495  0.61725779  0.07357017     0.15800
H2956       H  0.76226098  0.51744264  0.08795417     0.15800
C2957       C  0.77864319  0.54424533  0.13137674     0.37500
C2958       C  0.74692135  0.59091835  0.03011511     0.37400
N2959       N  0.78497788  0.53464848  0.15189308    -0.42900
N2960       N  0.74152361  0.60145755  0.00981724    -0.42900
C2961       C  0.78732601  0.28482211  0.18556556     0.00700
C2962       C  0.77309784  0.28370931  0.16108021    -0.11200
C2963       C  0.76183152  0.30714838  0.14975998     0.02900
C2964       C  0.76618978  0.33232257  0.16225603     0.00600
C2965       C  0.78145787  0.33364247  0.18626584    -0.11100
C2966       C  0.79156772  0.30984642  0.19842470     0.02800
H2967       H  0.76921069  0.26417833  0.15174466     0.15800
H2968       H  0.78433610  0.35312483  0.19597898     0.15800
C2969       C  0.80575542  0.31140631  0.22399616     0.37500
C2970       C  0.74339126  0.30438947  0.12722470     0.37400
N2971       N  0.81708025  0.31257953  0.24452478    -0.42900
N2972       N  0.72825555  0.30149988  0.10952687    -0.42900
C2973       C  0.72150138  0.35930029  0.19209338     0.00700
C2974       C  0.70968372  0.33355586  0.19248522    -0.11200
C2975       C  0.70853360  0.31819568  0.21634014     0.02900
C2976       C  0.71882319  0.32883406  0.24086311     0.00600
C2977       C  0.72856980  0.35556616  0.24082368    -0.11100
C2978       C  0.73033416  0.37061446  0.21675110     0.02800
H2979       H  0.70321947  0.32450871  0.17357701     0.15800
H2980       H  0.73629956  0.36423274  0.25942773     0.15800
C2981       C  0.74352313  0.39650588  0.21779007     0.37500
C2982       C  0.69723790  0.29134932  0.21473382     0.37400
N2983       N  0.75436118  0.41710371  0.21947823    -0.42900
N2984       N  0.68827866  0.26979923  0.21334617    -0.42900
C2985       C  0.66283106  0.45275799  0.16730941     0.00700
C2986       C  0.69087532  0.45722404  0.17041635    -0.11200
C2987       C  0.71015216  0.43728997  0.16399040     0.02900
C2988       C  0.70165364  0.41137677  0.15610853     0.00600
C2989       C  0.67410119  0.40711006  0.15120610    -0.11100
C2990       C  0.65494267  0.42820982  0.15468350     0.02800
H2991       H  0.69788750  0.47616422  0.17889987     0.15800
H2992       H  0.66778167  0.38774025  0.14310481     0.15800
C2993       C  0.62872267  0.42497854  0.14208940     0.37500
C2994       C  0.73848029  0.44410200  0.16536300     0.37400
N2995       N  0.60789649  0.42215674  0.13160703    -0.42900
N2996       N  0.76112398  0.44981801  0.16618191    -0.42900
C2997       C  0.77679881  0.36056762  0.10876822     0.00700
C2998       C  0.80405676  0.36297643  0.11648451    -0.11200
C2999       C  0.82499347  0.35725414  0.09822185     0.02900
C3000       C  0.81879250  0.34768531  0.07192254     0.00600
C3001       C  0.79137657  0.34520865  0.06447152    -0.11100
C3002       C  0.77054107  0.35207795  0.08229714     0.02800
H3003       H  0.80895081  0.37023530  0.13659219     0.15800
H3004       H  0.78604218  0.33761187  0.04465302     0.15800
C3005       C  0.74294251  0.34960433  0.07289190     0.37500
C3006       C  0.85239948  0.36292293  0.10659421     0.37400
N3007       N  0.72097257  0.34737481  0.06493687    -0.42900
N3008       N  0.87429811  0.36767105  0.11344843    -0.42900
C3009       C  0.73699340  0.40952548  0.10390863     0.00700
C3010       C  0.76101389  0.42370233  0.10041420    -0.11200
C3011       C  0.76425226  0.44092280  0.07840838     0.02900
C3012       C  0.74311452  0.44389330  0.05902640     0.00600
C3013       C  0.71866310  0.43034125  0.06307554    -0.11100
C3014       C  0.71540924  0.41326717  0.08537828     0.02800
H3015       H  0.77747320  0.42107580  0.11493972     0.15800
H3016       H  0.70218122  0.43274695  0.04856772     0.15800
C3017       C  0.69035402  0.39883654  0.08778528     0.37500
C3018       C  0.78913621  0.45589654  0.07702651     0.37400
N3019       N  0.67014852  0.38734523  0.08911626    -0.42900
N3020       N  0.80905022  0.46792737  0.07608580    -0.42900
C3021       C  0.23877808  0.16565173  0.01313331     0.00700
C3022       C  0.21109665  0.16480906  0.01968963    -0.11200
C3023       C  0.19528312  0.18874116  0.02177177     0.02900
C3024       C  0.20724554  0.21426565  0.01800926     0.00600
C3025       C  0.23512768  0.21520920  0.01264378    -0.11100
C3026       C  0.25085156  0.19125857  0.01011205     0.02800
H3027       H  0.20165368  0.14529246  0.02242854     0.15800
H3028       H  0.24448165  0.23478418  0.00985056     0.15800
C3029       C  0.27945069  0.19347249  0.00501263     0.37500
C3030       C  0.16691439  0.18666626  0.02804747     0.37400
N3031       N  0.30239173  0.19537965  0.00089834    -0.42900
N3032       N  0.14413861  0.18492680  0.03302055    -0.42900
C3033       C  0.08234043  0.28223055  0.06766759     0.00700
C3034       C  0.07208197  0.29603380  0.09025580    -0.11200
C3035       C  0.04816792  0.28749533  0.10294124     0.02900
C3036       C  0.03266123  0.26604268  0.09195440     0.00600
C3037       C  0.04315346  0.25202365  0.06966885    -0.11100
C3038       C  0.06816324  0.25902204  0.05839985     0.02800
H3039       H  0.08273465  0.31350532  0.09797481     0.15800
H3040       H  0.03289117  0.23407625  0.06246816     0.15800
C3041       C  0.08000330  0.24052652  0.03897897     0.37500
C3042       C  0.04003279  0.30078437  0.12762491     0.37400
N3043       N  0.08959203  0.22556901  0.02360337    -0.42900
N3044       N  0.03351104  0.31130039  0.14748109    -0.42900
C3045       C  0.07724176  0.26610675  0.93471060     0.00700
C3046       C  0.10220809  0.25149552  0.93770361    -0.11200
C3047       C  0.12502316  0.26203143  0.95129205     0.02900
C3048       C  0.12255256  0.28553449  0.96743641     0.00600
C3049       C  0.09835259  0.30111710  0.96344638    -0.11100
C3050       C  0.07613013  0.29189603  0.94767217     0.02800
H3051       H  0.10470230  0.23169825  0.92865769     0.15800
H3052       H  0.09633045  0.32051193  0.97370285     0.15800
C3053       C  0.05307454  0.31011366  0.94564895     0.37500
C3054       C  0.15127279  0.25159768  0.94341491     0.37400
N3055       N  0.03566901  0.32621960  0.94539851    -0.42900
N3056       N  0.17219465  0.24343756  0.93634292    -0.42900
C3057       C  0.33536142  0.50859845  0.69750491     0.00700
C3058       C  0.30880786  0.49832557  0.69429712    -0.11200
C3059       C  0.29594014  0.49591684  0.66873712     0.02900
C3060       C  0.30917914  0.50361355  0.64489272     0.00600
C3061       C  0.33535749  0.51427661  0.64770390    -0.11100
C3062       C  0.34832162  0.51710396  0.67327381     0.02800
H3063       H  0.29746047  0.49262035  0.71195664     0.15800
H3064       H  0.34560813  0.52096235  0.62967564     0.15800
C3065       C  0.37463605  0.52931907  0.67327269     0.37500
C3066       C  0.26841847  0.48664643  0.66750246     0.37400
N3067       N  0.39551500  0.53964568  0.67247519    -0.42900
N3068       N  0.24627344  0.47933992  0.66650085    -0.42900
C3069       C  0.44817827  0.43051056  0.78831260     0.00700
C3070       C  0.44659493  0.40626065  0.80349721    -0.11200
C3071       C  0.46627485  0.38519365  0.80096013     0.02900
C3072       C  0.48871579  0.38854058  0.78387723     0.00600
C3073       C  0.49019286  0.41246724  0.76867689    -0.11100
C3074       C  0.46995007  0.43269875  0.76986950     0.02800
H3075       H  0.42999214  0.40373517  0.81739768     0.15800
H3076       H  0.50649070  0.41458718  0.75429491     0.15800
C3077       C  0.47124252  0.45383090  0.74978407     0.37500
C3078       C  0.46312951  0.36036396  0.81607684     0.37400
N3079       N  0.47315687  0.47006361  0.73301946    -0.42900
N3080       N  0.46059717  0.34038197  0.82810957    -0.42900
C3081       C  0.48243628  0.55428836  0.76601909     0.00700
C3082       C  0.46776035  0.53983224  0.74642380    -0.11200
C3083       C  0.44066693  0.53142704  0.75033511     0.02900
C3084       C  0.42584704  0.53810881  0.77428962     0.00600
C3085       C  0.44106745  0.55179852  0.79440371    -0.11100
C3086       C  0.46848495  0.55981247  0.79047910     0.02800
H3087       H  0.47724994  0.53604067  0.72707913     0.15800
H3088       H  0.43174004  0.55581465  0.81374487     0.15800
C3089       C  0.48172842  0.57488308  0.81163245     0.37500
C3090       C  0.42970723  0.51402618  0.72975217     0.37400
N3091       N  0.49240172  0.58693132  0.82859968    -0.42900
N3092       N  0.42175363  0.49956755  0.71317579    -0.42900
C3093       C  0.17001420  0.81464633  0.98992333     0.00700
C3094       C  0.15615003  0.83524349  0.00459379    -0.11200
C3095       C  0.16756744  0.86069814  0.01007932     0.02900
C3096       C  0.19357397  0.86691628  0.00053169     0.00600
C3097       C  0.20680303  0.84756623  0.98430113    -0.11100
C3098       C  0.19552652  0.82198380  0.97866607     0.02800
H3099       H  0.13600517  0.83171630  0.01207758     0.15800
H3100       H  0.22666472  0.85228729  0.97653270     0.15800
C3101       C  0.21124844  0.80477697  0.96099227     0.37500
C3102       C  0.15169332  0.88007813  0.02530351     0.37400
N3103       N  0.22448744  0.79196790  0.94638662    -0.42900
N3104       N  0.13824382  0.89515156  0.03740510    -0.42900
C3105       C  0.09347256  0.73643744  0.03472962     0.00700
C3106       C  0.07765296  0.76058789  0.03036752    -0.11200
C3107       C  0.05325590  0.76655731  0.04480325     0.02900
C3108       C  0.04345731  0.74863051  0.06480180     0.00600
C3109       C  0.05912522  0.72469009  0.06927440    -0.11100
C3110       C  0.08243805  0.71784873  0.05372737     0.02800
H3111       H  0.08361746  0.77468421  0.01482528     0.15800
H3112       H  0.05256709  0.71062529  0.08468833     0.15800
C3113       C  0.09354314  0.69065714  0.05673728     0.37500
C3114       C  0.03865434  0.79155947  0.03885571     0.37400
N3115       N  0.10211800  0.66868205  0.05897070    -0.42900
N3116       N  0.02687613  0.81157283  0.03396724    -0.42900
C3117       C  0.03771132  0.71742640  0.89184390     0.00700
C3118       C  0.05727962  0.69676419  0.88847241    -0.11200
C3119       C  0.07235352  0.68689051  0.91048859     0.02900
C3120       C  0.06889136  0.69894070  0.93615092     0.00600
C3121       C  0.04694460  0.71721132  0.93985826    -0.11100
C3122       C  0.03110593  0.72623708  0.91811276     0.02800
H3123       H  0.06135107  0.68893853  0.86840811     0.15800
H3124       H  0.04334675  0.72656673  0.95925849     0.15800
C3125       C  0.01128836  0.74752655  0.92340653     0.37500
C3126       C  0.09141223  0.66475425  0.90606217     0.37400
N3127       N  0.99626551  0.76502538  0.92873933    -0.42900
N3128       N  0.10665788  0.64699011  0.90240331    -0.42900
C3129       C  0.24234685  0.70178826  0.86894708     0.00700
C3130       C  0.26376081  0.71935987  0.86379424    -0.11200
C3131       C  0.25938029  0.74398347  0.85018398     0.02900
C3132       C  0.23288298  0.75170506  0.84184681     0.00600
C3133       C  0.21125178  0.73453232  0.84798197    -0.11100
C3134       C  0.21580255  0.70956555  0.86111279     0.02800
H3135       H  0.28423146  0.71338593  0.86979884     0.15800
H3136       H  0.19078857  0.74021815  0.84169661     0.15800
C3137       C  0.19315301  0.69182838  0.86465342     0.37500
C3138       C  0.28247648  0.76084573  0.84523812     0.37400
N3139       N  0.17461301  0.67798147  0.86703266    -0.42900
N3140       N  0.30106128  0.77420877  0.84113198    -0.42900
C3141       C  0.27374021  0.65950830  0.83704007     0.00700
C3142       C  0.29969615  0.66784932  0.83023401    -0.11200
C3143       C  0.30852488  0.66627454  0.80357287     0.02900
C3144       C  0.29154816  0.65504121  0.78352543     0.00600
C3145       C  0.26547473  0.64675865  0.79042053    -0.11100
C3146       C  0.25647471  0.64898398  0.81701870     0.02800
H3147       H  0.31292403  0.67573543  0.84584836     0.15800
H3148       H  0.25188231  0.63935832  0.77485240     0.15800
C3149       C  0.22962583  0.64009470  0.82360686     0.37500
C3150       C  0.33407532  0.67840281  0.79710508     0.37400
N3151       N  0.20809888  0.63296711  0.82894437    -0.42900
N3152       N  0.35440350  0.68872564  0.79246767    -0.42900
C3153       C  0.22260288  0.67412627  0.92456531     0.00700
C3154       C  0.22819047  0.69746439  0.94014719    -0.11200
C3155       C  0.20904041  0.70901490  0.95863935     0.02900
C3156       C  0.18208570  0.69904688  0.96066233     0.00600
C3157       C  0.17754355  0.67458436  0.94609912    -0.11100
C3158       C  0.19697135  0.66240877  0.92863670     0.02800
H3159       H  0.24806340  0.70633710  0.93850326     0.15800
H3160       H  0.15888228  0.66383359  0.94880997     0.15800
C3161       C  0.18943855  0.63798449  0.91457819     0.37500
C3162       C  0.21864908  0.72964163  0.97677919     0.37400
N3163       N  0.18274617  0.61854560  0.90340419    -0.42900
N3164       N  0.22670213  0.74591722  0.99151062    -0.42900
C3165       C  0.29171109  0.61250840  0.86994042     0.00700
C3166       C  0.28185183  0.59286672  0.85184033    -0.11200
C3167       C  0.29940710  0.57459459  0.83786572     0.02900
C3168       C  0.32805150  0.57496396  0.84180744     0.00600
C3169       C  0.33798380  0.59495490  0.85959485    -0.11100
C3170       C  0.32030844  0.61353811  0.87324767     0.02800
H3171       H  0.26023857  0.59245684  0.84774912     0.15800
H3172       H  0.35966836  0.59598465  0.86300364     0.15800
C3173       C  0.33206156  0.63421805  0.89004754     0.37500
C3174       C  0.28746385  0.55673542  0.81817516     0.37400
N3175       N  0.34142279  0.65094077  0.90342921    -0.42900
N3176       N  0.27794301  0.54243447  0.80231144    -0.42900
C3177       C  0.25669593  0.57130810  0.95831121     0.00700
C3178       C  0.27208212  0.59412038  0.96499817    -0.11200
C3179       C  0.27200242  0.61682544  0.94801689     0.02900
C3180       C  0.25671725  0.61638071  0.92397290     0.00600
C3181       C  0.24178952  0.59355166  0.91709256    -0.11100
C3182       C  0.24112148  0.57126377  0.93432213     0.02800
H3183       H  0.28412476  0.59415967  0.98344353     0.15800
H3184       H  0.23096028  0.59302251  0.89793376     0.15800
C3185       C  0.22522852  0.54834344  0.92615160     0.37500
C3186       C  0.28856522  0.63974319  0.95490846     0.37400
N3187       N  0.21217459  0.53036065  0.91911316    -0.42900
N3188       N  0.30190270  0.65810688  0.96029796    -0.42900
C3189       C  0.25692842  0.28138065  0.83631634     0.00700
C3190       C  0.28003262  0.28891574  0.85104954    -0.11200
C3191       C  0.28343300  0.31597396  0.85898000     0.02900
C3192       C  0.26339042  0.33573396  0.85257074     0.00600
C3193       C  0.23924170  0.32783978  0.84013021    -0.11100
C3194       C  0.23591497  0.30093517  0.83173172     0.02800
H3195       H  0.29618868  0.27409708  0.85485416     0.15800
H3196       H  0.22368995  0.34307223  0.83560087     0.15800
C3197       C  0.21100430  0.29409571  0.81797553     0.37500
C3198       C  0.30817761  0.32352206  0.87250548     0.37400
N3199       N  0.19104330  0.28867496  0.80694130    -0.42900
N3200       N  0.32797212  0.32969236  0.88340495    -0.42900
C3201       C  0.29234214  0.36914602  0.81154965     0.00700
C3202       C  0.27251721  0.35968936  0.79350177    -0.11200
C3203       C  0.27963970  0.34582181  0.76981654     0.02900
C3204       C  0.30723239  0.34230973  0.76300355     0.00600
C3205       C  0.32708430  0.35301204  0.78033601    -0.11100
C3206       C  0.31991273  0.36577316  0.80471723     0.02800
H3207       H  0.25126961  0.36257319  0.79829146     0.15800
H3208       H  0.34834538  0.35013299  0.77549652     0.15800
C3209       C  0.34122809  0.37330532  0.82321588     0.37500
C3210       C  0.25817632  0.33527871  0.75302714     0.37400
N3211       N  0.35837540  0.37911793  0.83810287    -0.42900
N3212       N  0.24084101  0.32668955  0.73985262    -0.42900
C3213       C  0.24705504  0.36974098  0.90132898     0.00700
C3214       C  0.25876029  0.35799456  0.92466140    -0.11200
C3215       C  0.24253613  0.34819249  0.94583220     0.02900
C3216       C  0.21383318  0.35044905  0.94415190     0.00600
C3217       C  0.20234044  0.36243914  0.92073247    -0.11100
C3218       C  0.21853681  0.37191778  0.89956174     0.02800
H3219       H  0.28064936  0.35586221  0.92604911     0.15800
H3220       H  0.18047308  0.36437388  0.91895848     0.15800
C3221       C  0.20541344  0.38387462  0.87609591     0.37500
C3222       C  0.25589260  0.33440193  0.96812078     0.37400
N3223       N  0.19498252  0.39347833  0.85724341    -0.42900
N3224       N  0.26671545  0.32326626  0.98591854    -0.42900
C3225       C  0.30486373  0.42745973  0.83743744     0.00700
C3226       C  0.32797338  0.43716135  0.85059543    -0.11200
C3227       C  0.34507022  0.45615442  0.83845383     0.02900
C3228       C  0.33976848  0.46622366  0.81182192     0.00600
C3229       C  0.31543594  0.45778502  0.79946624    -0.11100
C3230       C  0.29843532  0.43848759  0.81168043     0.02800
H3231       H  0.33348339  0.42913263  0.87017799     0.15800
H3232       H  0.30879106  0.46662916  0.78070101     0.15800
C3233       C  0.27394160  0.43101376  0.79761444     0.37500
C3234       C  0.36800732  0.46500189  0.85429239     0.37400
N3235       N  0.25433651  0.42506407  0.78624164    -0.42900
N3236       N  0.38627390  0.47207219  0.86713683    -0.42900
C3237       C  0.27576826  0.42488490  0.89714981     0.00700
C3238       C  0.25101431  0.43873354  0.90086139    -0.11200
C3239       C  0.24627528  0.45441310  0.92401120     0.02900
C3240       C  0.26727878  0.45784486  0.94337069     0.00600
C3241       C  0.29215949  0.44398915  0.93940690    -0.11100
C3242       C  0.29610937  0.42681412  0.91718563     0.02800
H3243       H  0.23473496  0.43598677  0.88629757     0.15800
H3244       H  0.30820741  0.44551052  0.95441433     0.15800
C3245       C  0.32028280  0.40981526  0.91656023     0.37500
C3246       C  0.21924022  0.46538436  0.92773397     0.37400
N3247       N  0.33964933  0.39617304  0.91606441    -0.42900
N3248       N  0.19729497  0.47348489  0.93072184    -0.42900
C3249       C  0.33065286  0.47721302  0.27701946     0.00700
C3250       C  0.33853864  0.47175553  0.30383461    -0.11200
C3251       C  0.31942884  0.47271525  0.32474005     0.02900
C3252       C  0.29237945  0.48080289  0.31905284     0.00600
C3253       C  0.28446237  0.48540865  0.29224280    -0.11100
C3254       C  0.30294039  0.48267531  0.27121090     0.02800
H3255       H  0.35949173  0.46625374  0.30827573     0.15800
H3256       H  0.26375641  0.49192329  0.28790612     0.15800
C3257       C  0.29277950  0.48606183  0.24397468     0.37500
C3258       C  0.32786725  0.46508376  0.35166614     0.37400
N3259       N  0.28414284  0.48861101  0.22228625    -0.42900
N3260       N  0.33483268  0.45839887  0.37309034    -0.42900
C3261       C  0.45099108  0.41230544  0.22578230     0.00700
C3262       C  0.47396701  0.39696138  0.21830071    -0.11200
C3263       C  0.49059055  0.38446221  0.23814994     0.02900
C3264       C  0.48573206  0.38979971  0.26576129     0.00600
C3265       C  0.46229976  0.40455142  0.27281358    -0.11100
C3266       C  0.44408479  0.41391201  0.25317481     0.02800
H3267       H  0.47900343  0.39507281  0.19711969     0.15800
H3268       H  0.45828793  0.40925081  0.29371629     0.15800
C3269       C  0.41823129  0.42486380  0.26153119     0.37500
C3270       C  0.51193125  0.36597062  0.22981023     0.37400
N3271       N  0.39725169  0.43267503  0.26869959    -0.42900
N3272       N  0.52865447  0.35071945  0.22300159    -0.42900
C3273       C  0.42929702  0.51901768  0.22012553     0.00700
C3274       C  0.43915024  0.53964830  0.20265882    -0.11200
C3275       C  0.45980181  0.55849064  0.21016540     0.02900
C3276       C  0.47349732  0.55720559  0.23555871     0.00600
C3277       C  0.46431553  0.53648228  0.25304576    -0.11100
C3278       C  0.44320724  0.51781307  0.24576506     0.02800
H3279       H  0.43072018  0.54132330  0.18246214     0.15800
H3280       H  0.47359573  0.53490950  0.27293329     0.15800
C3281       C  0.43661915  0.49763742  0.26562135     0.37500
C3282       C  0.46576858  0.57987448  0.19134860     0.37400
N3283       N  0.43200314  0.48193240  0.28230832    -0.42900
N3284       N  0.46989913  0.59713373  0.17610053    -0.42900
C3285       C  0.24719454  0.31784171  0.14789213     0.00700
C3286       C  0.26189405  0.29327574  0.14572676    -0.11200
C3287       C  0.25061780  0.26856797  0.15383082     0.02900
C3288       C  0.22398466  0.26811981  0.16407827     0.00600
C3289       C  0.20963511  0.29284986  0.16707787    -0.11100
C3290       C  0.22116841  0.31760851  0.15942807     0.02800
H3291       H  0.28211941  0.29344417  0.13738008     0.15800
H3292       H  0.18908460  0.29273400  0.17467425     0.15800
C3293       C  0.20605169  0.34258040  0.16367556     0.37500
C3294       C  0.26673472  0.24394312  0.15116107     0.37400
N3295       N  0.19387381  0.36257677  0.16725347    -0.42900
N3296       N  0.28007553  0.22444538  0.14917172    -0.42900
C3297       C  0.29110694  0.34532158  0.17845151     0.00700
C3298       C  0.27573752  0.34710604  0.20198326    -0.11200
C3299       C  0.28410854  0.33352411  0.22553788     0.02900
C3300       C  0.30858728  0.31791133  0.22566812     0.00600
C3301       C  0.32370579  0.31608385  0.20173225    -0.11100
C3302       C  0.31501081  0.32936588  0.17819440     0.02800
H3303       H  0.25679372  0.35869605  0.20172178     0.15800
H3304       H  0.34224445  0.30388931  0.20121743     0.15800
C3305       C  0.33008872  0.32509261  0.15365116     0.37500
C3306       C  0.26712458  0.33633353  0.24901382     0.37400
N3307       N  0.34200380  0.32143709  0.13392235    -0.42900
N3308       N  0.25319162  0.33869335  0.26757695    -0.42900
C3309       C  0.34997383  0.43854574  0.17209161     0.00700
C3310       C  0.32155795  0.44290624  0.17558309    -0.11200
C3311       C  0.30126200  0.42514212  0.16506338     0.02900
C3312       C  0.30817211  0.40123923  0.15040792     0.00600
C3313       C  0.33617528  0.39720373  0.14579299    -0.11100
C3314       C  0.35647531  0.41552589  0.15528105     0.02800
H3315       H  0.31488071  0.46066004  0.18670872     0.15800
H3316       H  0.34237954  0.37980144  0.13381957     0.15800
C3317       C  0.38332388  0.41088892  0.14487227     0.37500
C3318       C  0.27314920  0.43215851  0.16945805     0.37400
N3319       N  0.40460540  0.40665923  0.13597235    -0.42900
N3320       N  0.25058976  0.43796992  0.17280304    -0.42900
C3321       C  0.19539564  0.32507224  0.05513166     0.00700
C3322       C  0.22367629  0.31904274  0.05447637    -0.11200
C3323       C  0.24245568  0.32964900  0.07365023     0.02900
C3324       C  0.23393455  0.34749996  0.09446138     0.00600
C3325       C  0.20618875  0.35495323  0.09438378    -0.11100
C3326       C  0.18738180  0.34470116  0.07497462     0.02800
H3327       H  0.23146131  0.30615369  0.03851332     0.15800
H3328       H  0.19911606  0.36937620  0.10939000     0.15800
C3329       C  0.16049170  0.35664966  0.07492358     0.37500
C3330       C  0.27077442  0.32232900  0.07122869     0.37400
N3331       N  0.13905571  0.36663916  0.07492440    -0.42900
N3332       N  0.29355597  0.31670104  0.06929262    -0.42900
C3333       C  0.26326747  0.44501509  0.05991439     0.00700
C3334       C  0.28670155  0.42829349  0.06048618    -0.11200
C3335       C  0.28926783  0.40688166  0.07890580     0.02900
C3336       C  0.26825496  0.40224962  0.09717046     0.00600
C3337       C  0.24477118  0.41856650  0.09658328    -0.11100
C3338       C  0.24205414  0.43993496  0.07818273     0.02800
H3339       H  0.30293509  0.43176946  0.04633199     0.15800
H3340       H  0.22869806  0.41481724  0.11086911     0.15800
C3341       C  0.21783122  0.45683356  0.07945551     0.37500
C3342       C  0.31312400  0.38943130  0.07814987     0.37400
N3343       N  0.19841298  0.47033750  0.08072478    -0.42900
N3344       N  0.33216426  0.37534564  0.07743078    -0.42900
C3345       C  0.25248081  0.68903995  0.16199943     0.00700
C3346       C  0.22634501  0.69574178  0.17066359    -0.11200
C3347       C  0.21938736  0.72252640  0.17748059     0.02900
C3348       C  0.23893621  0.74313392  0.17543243     0.00600
C3349       C  0.26513622  0.73625617  0.16656754    -0.11100
C3350       C  0.27200195  0.70940352  0.15991751     0.02800
H3351       H  0.21132742  0.67995324  0.17171035     0.15800
H3352       H  0.28024540  0.75189667  0.16479155     0.15800
C3353       C  0.29873071  0.70328314  0.14974539     0.37500
C3354       C  0.19167130  0.72824922  0.18498835     0.37400
N3355       N  0.32010945  0.69841208  0.14140337    -0.42900
N3356       N  0.16925217  0.73210594  0.19076437    -0.42900
C3357       C  0.28614225  0.64856252  0.19435082     0.00700
C3358       C  0.26750349  0.65399685  0.21517657    -0.11200
C3359       C  0.27625571  0.65730319  0.24203426     0.02900
C3360       C  0.30406366  0.65517109  0.24823137     0.00600
C3361       C  0.32269515  0.65126313  0.22716653    -0.11100
C3362       C  0.31404399  0.64797081  0.20045550     0.02800
H3363       H  0.24596833  0.65466876  0.21059167     0.15800
H3364       H  0.34420469  0.64959686  0.23185347     0.15800
C3365       C  0.33424243  0.64382462  0.17988355     0.37500
C3366       C  0.25641842  0.66111176  0.26298826     0.37400
N3367       N  0.35060770  0.64043518  0.16356977    -0.42900
N3368       N  0.24053784  0.66419115  0.27982316    -0.42900
C3369       C  0.19505688  0.68671541  0.07340682     0.00700
C3370       C  0.18712263  0.66362413  0.08771998    -0.11200
C3371       C  0.20453238  0.65157157  0.10697378     0.02900
C3372       C  0.23017704  0.66279280  0.11194840     0.00600
C3373       C  0.23725922  0.68692776  0.09883626    -0.11100
C3374       C  0.22002257  0.69871061  0.07938927     0.02800
H3375       H  0.16764981  0.65470903  0.08329169     0.15800
H3376       H  0.25676510  0.69591142  0.10296868     0.15800
C3377       C  0.22828096  0.72291800  0.06544913     0.37500
C3378       C  0.19552373  0.62818124  0.12182959     0.37400
N3379       N  0.23476924  0.74230836  0.05412199    -0.42900
N3380       N  0.18835874  0.60953103  0.13394343    -0.42900
C3381       C  0.29783544  0.59714014  0.15571972     0.00700
C3382       C  0.29729568  0.58316033  0.18044985    -0.11200
C3383       C  0.31524387  0.56121421  0.18557159     0.02900
C3384       C  0.33310536  0.55209326  0.16530501     0.00600
C3385       C  0.33383887  0.56611489  0.14078206    -0.11100
C3386       C  0.31698264  0.58887393  0.13609778     0.02800
H3387       H  0.28322921  0.58970911  0.19594137     0.15800
H3388       H  0.34853493  0.55988616  0.12574816     0.15800
C3389       C  0.32164583  0.60477353  0.11212057     0.37500
C3390       C  0.31606630  0.54936039  0.21216037     0.37400
N3391       N  0.32600658  0.61758194  0.09307312    -0.42900
N3392       N  0.31695600  0.54051410  0.23380468    -0.42900
C3393       C  0.25737631  0.60382938  0.10658078     0.00700
C3394       C  0.25152576  0.57706133  0.11438966    -0.11200
C3395       C  0.25013497  0.55610449  0.09533150     0.02900
C3396       C  0.25392235  0.56197186  0.06783175     0.00600
C3397       C  0.25876607  0.58875272  0.05980739    -0.11100
C3398       C  0.26071898  0.60965321  0.07882236     0.02800
H3399       H  0.24899462  0.57232786  0.13561280     0.15800
H3400       H  0.26222008  0.59311503  0.03862408     0.15800
C3401       C  0.26891000  0.63595764  0.06923804     0.37500
C3402       C  0.24663570  0.52858952  0.10466728     0.37400
N3403       N  0.27589452  0.65664966  0.06086366    -0.42900
N3404       N  0.24415723  0.50658466  0.11246824    -0.42900
C3405       C  0.99925486  0.21279841  0.17051739     0.00700
C3406       C  0.99034533  0.22552330  0.19433538    -0.11200
C3407       C  0.99061398  0.21189087  0.21954881     0.02900
C3408       C  0.99928708  0.18409011  0.22154977     0.00600
C3409       C  0.00806353  0.17151376  0.19741764    -0.11100
C3410       C  0.00832932  0.18540345  0.17244502     0.02800
H3411       H  0.98359493  0.24662126  0.19324226     0.15800
H3412       H  0.01431829  0.15029078  0.19776659     0.15800
C3413       C  0.01712666  0.17041062  0.14904784     0.37500
C3414       C  0.98270951  0.22775545  0.24272021     0.37400
N3415       N  0.02424566  0.15775765  0.13065595    -0.42900
N3416       N  0.97615288  0.24095187  0.26095491    -0.42900
C3417       C  0.03697420  0.08538002  0.28386016     0.00700
C3418       C  0.05303619  0.06890393  0.30173803    -0.11200
C3419       C  0.06293406  0.04203489  0.29506941     0.02900
C3420       C  0.05681800  0.02937365  0.26991289     0.00600
C3421       C  0.04079398  0.04556192  0.25211372    -0.11100
C3422       C  0.03067688  0.07223298  0.25867191     0.02800
H3423       H  0.05747652  0.07687789  0.32164869     0.15800
H3424       H  0.03650857  0.03740536  0.23221909     0.15800
C3425       C  0.01329847  0.08481420  0.23854725     0.37500
C3426       C  0.07960678  0.02788404  0.31475835     0.37400
N3427       N  0.99939022  0.09403462  0.22179241    -0.42900
N3428       N  0.09289927  0.01690412  0.33093435    -0.42900
C3429       C  0.89390609  0.02401944  0.31125492     0.00700
C3430       C  0.91306384  0.02718730  0.29095547    -0.11200
C3431       C  0.93412651  0.04527174  0.29381601     0.02900
C3432       C  0.93766577  0.05944660  0.31839317     0.00600
C3433       C  0.91875317  0.05579170  0.33917345    -0.11100
C3434       C  0.89670446  0.03838219  0.33562302     0.02800
H3435       H  0.91097805  0.01596918  0.27226117     0.15800
H3436       H  0.92106871  0.06681621  0.35796201     0.15800
C3437       C  0.87732165  0.03551201  0.35700670     0.37500
C3438       C  0.94996694  0.05034682  0.27009629     0.37400
N3439       N  0.86178526  0.03316337  0.37418570    -0.42900
N3440       N  0.96197391  0.05395678  0.25051313    -0.42900
C3441       C  0.72516612  0.30645121  0.49595029     0.00700
C3442       C  0.72361739  0.28342044  0.51258179    -0.11200
C3443       C  0.69956413  0.26859132  0.51437327     0.02900
C3444       C  0.67606028  0.27691022  0.49972841     0.00600
C3445       C  0.67779607  0.29973922  0.48261855    -0.11100
C3446       C  0.70208653  0.31433024  0.48052715     0.02800
H3447       H  0.74143564  0.27689176  0.52401252     0.15800
H3448       H  0.66015280  0.30607815  0.47084083     0.15800
C3449       C  0.70311107  0.33701306  0.46208498     0.37500
C3450       C  0.69982610  0.24414704  0.53050888     0.37400
N3451       N  0.70385651  0.35509448  0.44711909    -0.42900
N3452       N  0.70016878  0.22448205  0.54340329    -0.42900
C3453       C  0.80260086  0.42322732  0.43528202     0.00700
C3454       C  0.78151699  0.44103077  0.44357194    -0.11200
C3455       C  0.77002093  0.46053941  0.42605424     0.02900
C3456       C  0.77861897  0.46188720  0.39908241     0.00600
C3457       C  0.80056608  0.44519714  0.39103012    -0.11100
C3458       C  0.81274422  0.42621669  0.40885613     0.02800
H3459       H  0.77305338  0.43910776  0.46354596     0.15800
H3460       H  0.80751320  0.44627161  0.37034578     0.15800
C3461       C  0.83561932  0.41023930  0.39953090     0.37500
C3462       C  0.74826178  0.47769703  0.43594315     0.37400
N3463       N  0.85400028  0.39746881  0.39203416    -0.42900
N3464       N  0.73093726  0.49132848  0.44434003    -0.42900
C3465       C  0.79670746  0.39359813  0.53736431     0.00700
C3466       C  0.76989039  0.40452378  0.53582240    -0.11200
C3467       C  0.76191931  0.42953816  0.54818427     0.02900
C3468       C  0.78074996  0.44601801  0.56218299     0.00600
C3469       C  0.80772265  0.43592333  0.56314503    -0.11100
C3470       C  0.81574554  0.41070711  0.55085607     0.02800
H3471       H  0.75494408  0.39440294  0.52365484     0.15800
H3472       H  0.82270307  0.44760877  0.57399400     0.15800
C3473       C  0.84419701  0.40349874  0.55163541     0.37500
C3474       C  0.73393983  0.43834277  0.54558614     0.37400
N3475       N  0.86708418  0.39788370  0.55226124    -0.42900
N3476       N  0.71150631  0.44540701  0.54351192    -0.42900
C3477       C  0.03414798  0.18445097  0.80737190     0.00700
C3478       C  0.03571132  0.16934961  0.83146907    -0.11200
C3479       C  0.03639907  0.18238688  0.85665682     0.02900
C3480       C  0.03718276  0.21102601  0.85791999     0.00600
C3481       C  0.03598547  0.22606583  0.83389596    -0.11100
C3482       C  0.03339238  0.21316936  0.80884902     0.02800
H3483       H  0.03574237  0.14731742  0.83054147     0.15800
H3484       H  0.03639353  0.24808071  0.83490630     0.15800
C3485       C  0.02945310  0.23005373  0.78525630     0.37500
C3486       C  0.03667946  0.16598837  0.88082194     0.37400
N3487       N  0.02562865  0.24423918  0.76687842    -0.42900
N3488       N  0.03696973  0.15267857  0.90013064    -0.42900
C3489       C  0.11120191  0.05578447  0.75643306     0.00700
C3490       C  0.10541316  0.05940038  0.72893918    -0.11200
C3491       C  0.08544783  0.07827972  0.72009813     0.02900
C3492       C  0.07158020  0.09535858  0.73898294     0.00600
C3493       C  0.07571580  0.08934173  0.76657265    -0.11100
C3494       C  0.09549140  0.07037540  0.77535843     0.02800
H3495       H  0.11642974  0.04723193  0.71427421     0.15800
H3496       H  0.06263218  0.09845892  0.78153836     0.15800
C3497       C  0.09796435  0.06504992  0.80395650     0.37500
C3498       C  0.07860772  0.07796217  0.69169575     0.37400
N3499       N  0.09950864  0.06073247  0.82690472    -0.42900
N3500       N  0.07320797  0.07740036  0.66890504    -0.42900
C3501       C  0.94350854  0.00532984  0.75458144     0.00700
C3502       C  0.96164518  0.01689891  0.77289413    -0.11200
C3503       C  0.97464058  0.04098121  0.76661028     0.02900
C3504       C  0.97013526  0.05346904  0.74121577     0.00600
C3505       C  0.95208594  0.04186209  0.72276842    -0.11100
C3506       C  0.93854324  0.01800373  0.72936726     0.02800
H3507       H  0.96457637  0.00780932  0.79270829     0.15800
H3508       H  0.94869779  0.05144809  0.70325690     0.15800
C3509       C  0.91859637  0.00782242  0.71063881     0.37500
C3510       C  0.99140005  0.05331649  0.78708174     0.37400
N3511       N  0.90251187  0.99997849  0.69554433    -0.42900
N3512       N  0.00476472  0.06323475  0.80352895    -0.42900
C3513       C  0.89241208  0.22531493  0.70972105     0.00700
C3514       C  0.88820150  0.19810529  0.71710605    -0.11200
C3515       C  0.88136564  0.19114224  0.74371532     0.02900
C3516       C  0.87867960  0.21165198  0.76347084     0.00600
C3517       C  0.88285983  0.23879264  0.75599961    -0.11100
C3518       C  0.88953725  0.24575786  0.72951313     0.02800
H3519       H  0.89035548  0.18230429  0.70199810     0.15800
H3520       H  0.88114835  0.25469628  0.77109730     0.15800
C3521       C  0.89458636  0.27393905  0.72369653     0.37500
C3522       C  0.87884026  0.16279339  0.75052030     0.37400
N3523       N  0.89875931  0.29668981  0.71982304    -0.42900
N3524       N  0.87712526  0.13997344  0.75582959    -0.42900
C3525       C  0.85747093  0.25862590  0.67114871     0.00700
C3526       C  0.83761426  0.23998474  0.67811834    -0.11200
C3527       C  0.81089622  0.24858942  0.68160210     0.02900
C3528       C  0.80394957  0.27622662  0.67735942     0.00600
C3529       C  0.82409634  0.29502661  0.67156104    -0.11100
C3530       C  0.85089907  0.28646335  0.66873671     0.02800
H3531       H  0.84284365  0.21851495  0.67991056     0.15800
H3532       H  0.81881328  0.31640985  0.66898964     0.15800
C3533       C  0.87121304  0.30659158  0.66384278     0.37500
C3534       C  0.79102570  0.22840392  0.68801661     0.37400
N3535       N  0.88742117  0.32290889  0.66034293    -0.42900
N3536       N  0.77536540  0.21205169  0.69335086    -0.42900
C3537       C  0.94198477  0.20314297  0.67963784     0.00700
C3538       C  0.94538617  0.17661416  0.66963094    -0.11200
C3539       C  0.96480382  0.15832278  0.68096427     0.02900
C3540       C  0.98131009  0.16615446  0.70326728     0.00600
C3541       C  0.97910278  0.19366081  0.71133366    -0.11100
C3542       C  0.95920010  0.21154184  0.70074780     0.02800
H3543       H  0.93281320  0.17014203  0.65284016     0.15800
H3544       H  0.99398024  0.20227129  0.72464816     0.15800
C3545       C  0.95804787  0.23900931  0.71101197     0.37500
C3546       C  0.96839139  0.13224977  0.66805212     0.37400
N3547       N  0.95757733  0.26100015  0.71931126    -0.42900
N3548       N  0.97129972  0.11143340  0.65748840    -0.42900
C3549       C  0.88529216  0.26486695  0.61483219     0.00700
C3550       C  0.85891070  0.26039149  0.60459208    -0.11200
C3551       C  0.84761176  0.27641256  0.58327765     0.02900
C3552       C  0.86264029  0.29735055  0.57128649     0.00600
C3553       C  0.88885208  0.30191741  0.58140423    -0.11100
C3554       C  0.90003210  0.28629045  0.60298145     0.02800
H3555       H  0.84686335  0.24459804  0.61358389     0.15800
H3556       H  0.90035377  0.31837950  0.57288181     0.15800
C3557       C  0.92560494  0.29463212  0.61417663     0.37500
C3558       C  0.82021833  0.27164122  0.57432992     0.37400
N3559       N  0.94580543  0.30229405  0.62312730    -0.42900
N3560       N  0.79819408  0.26810215  0.56708807    -0.42900
C3561       C  0.93764085  0.22566043  0.61977873     0.00700
C3562       C  0.92820374  0.21148653  0.59707869    -0.11200
C3563       C  0.94432462  0.20893972  0.57409169     0.02900
C3564       C  0.96962703  0.22160032  0.57372084     0.00600
C3565       C  0.97910952  0.23511777  0.59666679    -0.11100
C3566       C  0.96385065  0.23633746  0.62001089     0.02800
H3567       H  0.90794376  0.20328176  0.59703431     0.15800
H3568       H  0.99821050  0.24566246  0.59600829     0.15800
C3569       C  0.97484284  0.25071079  0.64288587     0.37500
C3570       C  0.93367319  0.19546465  0.55050981     0.37400
N3571       N  0.98426691  0.26262191  0.66065868    -0.42900
N3572       N  0.92518708  0.18471139  0.53154888    -0.42900
C3573       C  0.83935587  0.21781982  0.27888776     0.00700
C3574       C  0.83149209  0.20207880  0.30110720    -0.11200
C3575       C  0.84497103  0.20404238  0.32580256     0.02900
C3576       C  0.86668535  0.22199428  0.32847487     0.00600
C3577       C  0.87701377  0.23473496  0.30561192    -0.11100
C3578       C  0.86323503  0.23327773  0.28088006     0.02800
H3579       H  0.81409397  0.18898435  0.29954623     0.15800
H3580       H  0.89423323  0.24798865  0.30773896     0.15800
C3581       C  0.87269876  0.24987479  0.25894848     0.37500
C3582       C  0.83564009  0.18824083  0.34840822     0.37400
N3583       N  0.88032598  0.26337458  0.24152964    -0.42900
N3584       N  0.82806955  0.17560862  0.36649134    -0.42900
C3585       C  0.83285379  0.25877475  0.35919185     0.00700
C3586       C  0.80979867  0.24436552  0.36674967    -0.11200
C3587       C  0.78673378  0.24398529  0.34992862     0.02900
C3588       C  0.78659792  0.25845277  0.32529157     0.00600
C3589       C  0.80924932  0.27378762  0.31853619    -0.11100
C3590       C  0.83187839  0.27454730  0.33541887     0.02800
H3591       H  0.81064531  0.23184837  0.38479884     0.15800
H3592       H  0.80888349  0.28597856  0.30022203     0.15800
C3593       C  0.85488343  0.28978080  0.32658287     0.37500
C3594       C  0.76329884  0.22925548  0.35859172     0.37400
N3595       N  0.87324022  0.30169757  0.31874149    -0.42900
N3596       N  0.74443916  0.21749249  0.36542121    -0.42900
C3597       C  0.92142309  0.20504376  0.35835547     0.00700
C3598       C  0.91482551  0.18487242  0.33889118    -0.11200
C3599       C  0.93452086  0.16940691  0.32446830     0.02900
C3600       C  0.96227379  0.16908527  0.33231766     0.00600
C3601       C  0.96835892  0.18630327  0.35449617    -0.11100
C3602       C  0.94953802  0.20579993  0.36509277     0.02800
H3603       H  0.89400311  0.18070304  0.33428141     0.15800
H3604       H  0.98787023  0.18494862  0.36425989     0.15800
C3605       C  0.96109823  0.22756582  0.38048338     0.37500
C3606       C  0.92517807  0.15365084  0.30173600     0.37400
N3607       N  0.97200861  0.24481486  0.39184559    -0.42900
N3608       N  0.91760378  0.14104691  0.28354321    -0.42900
C3609       C  0.83604215  0.31039466  0.45744316     0.00700
C3610       C  0.84965891  0.32003608  0.43428424    -0.11200
C3611       C  0.85875733  0.30296802  0.41300612     0.02900
C3612       C  0.85854676  0.27422264  0.41522623     0.00600
C3613       C  0.84637027  0.26396213  0.43888209    -0.11100
C3614       C  0.83470633  0.28137592  0.45916317     0.02800
H3615       H  0.85400109  0.34130983  0.43235400     0.15800
H3616       H  0.84541377  0.24209087  0.44135497     0.15800
C3617       C  0.82170669  0.26861202  0.48170956     0.37500
C3618       C  0.86831450  0.31632873  0.38910278     0.37400
N3619       N  0.81132787  0.25828674  0.49981265    -0.42900
N3620       N  0.87586479  0.32844899  0.37068468    -0.42900
C3621       C  0.91340528  0.23912434  0.41704193     0.00700
C3622       C  0.91870775  0.21383923  0.42912409    -0.11200
C3623       C  0.93761010  0.21140284  0.45009055     0.02900
C3624       C  0.95072930  0.23492602  0.45956293     0.00600
C3625       C  0.94357078  0.26043587  0.44871555    -0.11100
C3626       C  0.92577980  0.26265184  0.42703622     0.02800
H3627       H  0.90883284  0.19586024  0.42142767     0.15800
H3628       H  0.95379487  0.27859929  0.45544132     0.15800
C3629       C  0.92491490  0.28829779  0.41283480     0.37500
C3630       C  0.94340885  0.18455924  0.46079854     0.37400
N3631       N  0.92609345  0.30903545  0.40187383    -0.42900
N3632       N  0.94802891  0.16293468  0.46912558    -0.42900
C3633       C  0.29824972  0.32553097  0.49369720     0.00700
C3634       C  0.29479952  0.29744226  0.48908298    -0.11200
C3635       C  0.31682572  0.27882173  0.49010254     0.02900
C3636       C  0.34303558  0.28764931  0.49663908     0.00600
C3637       C  0.34661355  0.31531262  0.50230037    -0.11100
C3638       C  0.32483784  0.33426258  0.50038478     0.02800
H3639       H  0.27486375  0.28985691  0.48434757     0.15800
H3640       H  0.36684266  0.32231593  0.50686851     0.15800
C3641       C  0.33103897  0.36262994  0.50364510     0.37500
C3642       C  0.31230670  0.25060192  0.48396462     0.37400
N3643       N  0.33616836  0.38535482  0.50630852    -0.42900
N3644       N  0.30883493  0.22794064  0.47897247    -0.42900
C3645       C  0.18778298  0.45686831  0.42754723     0.00700
C3646       C  0.19941221  0.48192074  0.43368088    -0.11200
C3647       C  0.21910214  0.49202120  0.41671066     0.02900
C3648       C  0.22028523  0.48280301  0.38968709     0.00600
C3649       C  0.20153293  0.46350636  0.38104586    -0.11100
C3650       C  0.18556529  0.45002043  0.39979457     0.02800
H3651       H  0.19825819  0.48981603  0.45404714     0.15800
H3652       H  0.20069182  0.45765242  0.35994045     0.15800
C3653       C  0.16775042  0.42939335  0.38971977     0.37500
C3654       C  0.23998931  0.50770378  0.42955163     0.37400
N3655       N  0.15361082  0.41292110  0.38113475    -0.42900
N3656       N  0.25617633  0.51976423  0.44131090    -0.42900
C3657       C  0.26142593  0.47264548  0.55721703     0.00700
C3658       C  0.23325687  0.46871165  0.55406492    -0.11200
C3659       C  0.22233371  0.44707517  0.53813045     0.02900
C3660       C  0.23930935  0.42751576  0.52455042     0.00600
C3661       C  0.26745674  0.43286047  0.52634827    -0.11100
C3662       C  0.27829760  0.45453866  0.54213395     0.02800
H3663       H  0.21950598  0.48214421  0.56489913     0.15800
H3664       H  0.28145770  0.42067567  0.51464755     0.15800
C3665       C  0.30718471  0.45839597  0.54159096     0.37500
C3666       C  0.19322251  0.44589405  0.53579989     0.37400
N3667       N  0.33036538  0.46149580  0.54090627    -0.42900
N3668       N  0.16985631  0.44514206  0.53377707    -0.42900
C3669       C  0.15186930  0.25444881  0.32513582     0.00700
C3670       C  0.16927907  0.23167957  0.32452070    -0.11200
C3671       C  0.17521854  0.21857609  0.30031721     0.02900
C3672       C  0.16264560  0.22738215  0.27605094     0.00600
C3673       C  0.14559967  0.25058337  0.27632636    -0.11100
C3674       C  0.14033211  0.26430772  0.30072540     0.02800
H3675       H  0.17800268  0.22376975  0.34313558     0.15800
H3676       H  0.13569552  0.25734067  0.25779286     0.15800
C3677       C  0.12260214  0.28797789  0.30043620     0.37500
C3678       C  0.19439804  0.19600383  0.30093138     0.37400
N3679       N  0.10850136  0.30706043  0.30023023    -0.42900
N3680       N  0.21002909  0.17816425  0.30157185    -0.42900
C3681       C  0.23686440  0.26712904  0.33282821     0.00700
C3682       C  0.22124241  0.28923060  0.32314839    -0.11200
C3683       C  0.19760437  0.29723089  0.33642375     0.02900
C3684       C  0.18953219  0.28306611  0.35959646     0.00600
C3685       C  0.20574449  0.26166768  0.36978616    -0.11100
C3686       C  0.22868134  0.25294548  0.35599966     0.02800
H3687       H  0.22825456  0.30110841  0.30619221     0.15800
H3688       H  0.19872551  0.24994031  0.38684955     0.15800
C3689       C  0.24350724  0.22916965  0.36570024     0.37500
C3690       C  0.18147076  0.31966759  0.32592380     0.37400
N3691       N  0.25529328  0.21000334  0.37324899    -0.42900
N3692       N  0.16858135  0.33780183  0.31766285    -0.42900
C3693       C  0.19157227  0.34295920  0.45075714     0.00700
C3694       C  0.18000124  0.31835157  0.45968499    -0.11200
C3695       C  0.16706395  0.29953879  0.44197181     0.02900
C3696       C  0.16522591  0.30432931  0.41358389     0.00600
C3697       C  0.17888402  0.32770511  0.40449998    -0.11100
C3698       C  0.19287888  0.34563705  0.42210701     0.02800
H3699       H  0.18258471  0.31250906  0.48056066     0.15800
H3700       H  0.17927208  0.33194163  0.38305455     0.15800
C3701       C  0.21005730  0.36542760  0.40966602     0.37500
C3702       C  0.15819499  0.27457610  0.45395830     0.37400
N3703       N  0.22380994  0.38114051  0.39940863    -0.42900
N3704       N  0.15177765  0.25488047  0.46481524    -0.42900
C3705       C  0.07542615  0.19093544  0.33528192     0.00700
C3706       C  0.09827673  0.18459674  0.35142951    -0.11200
C3707       C  0.11450666  0.20529474  0.36257454     0.02900
C3708       C  0.10720637  0.23318740  0.35910019     0.00600
C3709       C  0.08534540  0.23941462  0.34167138    -0.11100
C3710       C  0.07000214  0.21882240  0.32943726     0.02800
H3711       H  0.10317358  0.16344085  0.35575512     0.15800
H3712       H  0.08070917  0.26055279  0.33693977     0.15800
C3713       C  0.04929003  0.22679402  0.31006225     0.37500
C3714       C  0.13921996  0.19733565  0.37648825     0.37400
N3715       N  0.03271472  0.23308365  0.29445773    -0.42900
N3716       N  0.15913456  0.19097942  0.38752677    -0.42900
C3717       C  0.06825726  0.24918532  0.45085983     0.00700
C3718       C  0.07055530  0.27612071  0.44134656    -0.11200
C3719       C  0.09149511  0.28333206  0.42404042     0.02900
C3720       C  0.11039143  0.26340976  0.41581747     0.00600
C3721       C  0.10869778  0.23688527  0.42586886    -0.11100
C3722       C  0.08814551  0.22960061  0.44340465     0.02800
H3723       H  0.05590506  0.29164694  0.44729304     0.15800
H3724       H  0.12387328  0.22184863  0.42035460     0.15800
C3725       C  0.08885742  0.20219483  0.45401802     0.37500
C3726       C  0.09280186  0.31100540  0.41439409     0.37400
N3727       N  0.08961558  0.18026622  0.46258317    -0.42900
N3728       N  0.09401516  0.33319604  0.40671938    -0.42900
C3729       C  0.15943087  0.25215874  0.68588978     0.00700
C3730       C  0.17340358  0.22717788  0.68605039    -0.11200
C3731       C  0.18528995  0.21734761  0.70968529     0.02900
C3732       C  0.18189672  0.23203685  0.73378426     0.00600
C3733       C  0.16635298  0.25616795  0.73408015    -0.11100
C3734       C  0.15521875  0.26646202  0.71006578     0.02800
H3735       H  0.17580524  0.21591221  0.66743770     0.15800
H3736       H  0.16419571  0.26760643  0.75267654     0.15800
C3737       C  0.13963423  0.29157883  0.71044219     0.37500
C3738       C  0.20225445  0.19311786  0.70841591     0.37400
N3739       N  0.12702085  0.31166307  0.71075506    -0.42900
N3740       N  0.21596326  0.17379448  0.70736413    -0.42900
C3741       C  0.18799981  0.29088452  0.65042368     0.00700
C3742       C  0.19332886  0.31646873  0.66124227    -0.11200
C3743       C  0.22009435  0.32450212  0.66466923     0.02900
C3744       C  0.24127645  0.30695520  0.65634786     0.00600
C3745       C  0.23585329  0.28178515  0.64488336    -0.11100
C3746       C  0.20937819  0.27333335  0.64232335     0.02800
H3747       H  0.17671985  0.32982492  0.66725978     0.15800
H3748       H  0.25240956  0.26822620  0.63905899     0.15800
C3749       C  0.20467917  0.24708418  0.63019544     0.37500
C3750       C  0.22552074  0.35045661  0.67698574     0.37400
N3751       N  0.20115121  0.22614881  0.62025575    -0.42900
N3752       N  0.23000334  0.37120657  0.68690730    -0.42900
C3753       C  0.11661529  0.22598896  0.65352941     0.00700
C3754       C  0.10063310  0.22867403  0.67655989    -0.11200
C3755       C  0.08443033  0.20750464  0.68473325     0.02900
C3756       C  0.08348218  0.18359821  0.66931110     0.00600
C3757       C  0.10050913  0.18016050  0.64711246    -0.11100
C3758       C  0.11741691  0.20117388  0.63923128     0.02800
H3759       H  0.10047813  0.24753545  0.68790007     0.15800
H3760       H  0.10032851  0.16121646  0.63594959     0.15800
C3761       C  0.13527200  0.19682171  0.61665701     0.37500
C3762       C  0.06941915  0.21027578  0.70938619     0.37400
N3763       N  0.14949405  0.19317787  0.59850847    -0.42900
N3764       N  0.05755050  0.21215336  0.72931897    -0.42900
C3765       C  0.15368410  0.30463719  0.60032302     0.00700
C3766       C  0.17982754  0.30445620  0.58955819    -0.11200
C3767       C  0.18745035  0.32402138  0.57112525     0.02900
C3768       C  0.16870075  0.34429766  0.56296274     0.00600
C3769       C  0.14235824  0.34464862  0.57331744    -0.11100
C3770       C  0.13479800  0.32502186  0.59227127     0.02800
H3771       H  0.19413556  0.28836436  0.59460077     0.15800
H3772       H  0.12784982  0.36004249  0.56645009     0.15800
C3773       C  0.10799665  0.32646460  0.60368960     0.37500
C3774       C  0.21424128  0.32219755  0.55960168     0.37400
N3775       N  0.08660136  0.32754467  0.61306601    -0.42900
N3776       N  0.23561026  0.32085950  0.55017968    -0.42900
C3777       C  0.07679537  0.23341073  0.55931256     0.00700
C3778       C  0.10209199  0.24268229  0.55146166    -0.11200
C3779       C  0.12042321  0.25164850  0.57093982     0.02900
C3780       C  0.11151979  0.25510058  0.59786465     0.00600
C3781       C  0.08560447  0.24642225  0.60496648    -0.11100
C3782       C  0.06972671  0.23286878  0.58649582     0.02800
H3783       H  0.10754030  0.24252945  0.53027200     0.15800
H3784       H  0.07837532  0.24852091  0.62545620     0.15800
C3785       C  0.04767051  0.21665788  0.59601603     0.37500
C3786       C  0.14822235  0.25444842  0.56285344     0.37400
N3787       N  0.03109053  0.20244431  0.60397273    -0.42900
N3788       N  0.17033509  0.25558527  0.55538495    -0.42900
C3789       C  0.18705106  0.98630879  0.19402801     0.00700
C3790       C  0.18521207  0.98075984  0.22181316    -0.11200
C3791       C  0.16000466  0.98081790  0.23495784     0.02900
C3792       C  0.13585173  0.98710501  0.22055092     0.00600
C3793       C  0.13766392  0.99309198  0.19284453    -0.11100
C3794       C  0.16284484  0.99235408  0.17950432     0.02800
H3795       H  0.20359527  0.97618339  0.23322977     0.15800
H3796       H  0.11933433  0.99834992  0.18164143     0.15800
C3797       C  0.16345101  0.99877280  0.15109950     0.37500
C3798       C  0.15938868  0.97494056  0.26347007     0.37400
N3799       N  0.16372788  0.00390707  0.12828621    -0.42900
N3800       N  0.15890740  0.97022672  0.28636681    -0.42900
C3801       C  0.29938885  0.04052470  0.07803055     0.00700
C3802       C  0.28427279  0.03264853  0.05490016    -0.11200
C3803       C  0.27836312  0.05072426  0.03370831     0.02900
C3804       C  0.28639624  0.07782196  0.03557567     0.00600
C3805       C  0.30319801  0.08541641  0.05724876    -0.11100
C3806       C  0.31035557  0.06696356  0.07796215     0.02800
H3807       H  0.27552365  0.01273094  0.05351948     0.15800
H3808       H  0.31012338  0.10620500  0.05838425     0.15800
C3809       C  0.32913522  0.07587703  0.09843066     0.37500
C3810       C  0.26254781  0.04124073  0.01115620     0.37400
N3811       N  0.34428437  0.08323853  0.11471510    -0.42900
N3812       N  0.24982087  0.03320666  0.99326379    -0.42900
C3813       C  0.26041262  0.94747394  0.11208061     0.00700
C3814       C  0.27125713  0.92211050  0.10400452    -0.11200
C3815       C  0.26556791  0.91136314  0.07816169     0.02900
C3816       C  0.24979543  0.92652458  0.05921319     0.00600
C3817       C  0.23876347  0.95148741  0.06715364    -0.11100
C3818       C  0.24278043  0.96147909  0.09326699     0.02800
H3819       H  0.28472817  0.91083765  0.11728553     0.15800
H3820       H  0.22580300  0.96279814  0.05309984     0.15800
C3821       C  0.23050738  0.98780869  0.09890056     0.37500
C3822       C  0.27636029  0.88478846  0.07141542     0.37400
N3823       N  0.22105901  0.00910019  0.10306694    -0.42900
N3824       N  0.28488960  0.86337983  0.06614603    -0.42900
C3825       C  0.51700422  0.68912833  0.31665683     0.00700
C3826       C  0.51352852  0.69178943  0.28843599    -0.11200
C3827       C  0.51073091  0.66885456  0.27160409     0.02900
C3828       C  0.51060326  0.64245633  0.28280132     0.00600
C3829       C  0.51349487  0.63974376  0.31092408    -0.11100
C3830       C  0.51703862  0.66255200  0.32773036     0.02800
H3831       H  0.51339699  0.71191839  0.27945687     0.15800
H3832       H  0.51355070  0.61954153  0.31972511     0.15800
C3833       C  0.52018156  0.65781795  0.35627661     0.37500
C3834       C  0.50817884  0.67283563  0.24283727     0.37400
N3835       N  0.52282816  0.65304118  0.37903841    -0.42900
N3836       N  0.50614537  0.67622005  0.21976439    -0.42900
C3837       C  0.47485072  0.76857882  0.44829758     0.00700
C3838       C  0.48236793  0.74280034  0.45853476    -0.11200
C3839       C  0.46915404  0.73146848  0.48044272     0.02900
C3840       C  0.44848235  0.74645118  0.49321689     0.00600
C3841       C  0.44151324  0.77272265  0.48378976    -0.11100
C3842       C  0.45427459  0.78368653  0.46116010     0.02800
H3843       H  0.49821326  0.73111894  0.44887420     0.15800
H3844       H  0.42497305  0.78397704  0.49313614     0.15800
C3845       C  0.44584645  0.81016306  0.45130901     0.37500
C3846       C  0.47601066  0.70384765  0.48820890     0.37400
N3847       N  0.43894044  0.83134580  0.44332394    -0.42900
N3848       N  0.48147266  0.68154932  0.49386309    -0.42900
C3849       C  0.60001662  0.73833106  0.45421168     0.00700
C3850       C  0.57720554  0.72393338  0.44540998    -0.11200
C3851       C  0.56239961  0.73070457  0.42132097     0.02900
C3852       C  0.56896703  0.75358478  0.40461098     0.00600
C3853       C  0.59172053  0.76837250  0.41392908    -0.11100
C3854       C  0.60719922  0.76072243  0.43761572     0.02800
H3855       H  0.57075606  0.70693835  0.45755990     0.15800
H3856       H  0.59712781  0.78668084  0.40330326     0.15800
C3857       C  0.63020422  0.77681562  0.44504556     0.37500
C3858       C  0.53896922  0.71455848  0.41564768     0.37400
N3859       N  0.64862166  0.78975270  0.45115692    -0.42900
N3860       N  0.51997450  0.70169710  0.41155428    -0.42900
C3861       C  0.79215921  0.01135239  0.20206471     0.00700
C3862       C  0.78148294  0.01473316  0.22805667    -0.11200
C3863       C  0.79684938  0.00817410  0.25103675     0.02900
C3864       C  0.82386624  0.99904306  0.24844534     0.00600
C3865       C  0.83509644  0.99672080  0.22255076    -0.11100
C3866       C  0.81934081  0.00248992  0.19941766     0.02800
H3867       H  0.76027157  0.02034446  0.23020249     0.15800
H3868       H  0.85608553  0.99020586  0.22049730     0.15800
C3869       C  0.83070184  0.99716359  0.17319350     0.37500
C3870       C  0.78392307  0.00906194  0.27702300     0.37400
N3871       N  0.83984867  0.99271358  0.15218547    -0.42900
N3872       N  0.77321947  0.00949385  0.29772072    -0.42900
C3873       C  0.73790968  0.05017399  0.10250855     0.00700
C3874       C  0.76585698  0.05139419  0.09626349    -0.11200
C3875       C  0.77580140  0.06756961  0.07493414     0.02900
C3876       C  0.75802789  0.08308715  0.05811864     0.00600
C3877       C  0.73009799  0.08134206  0.06339150    -0.11100
C3878       C  0.72006692  0.06529359  0.08496842     0.02800
H3879       H  0.78034046  0.03866324  0.10709088     0.15800
H3880       H  0.71595633  0.09293402  0.05081013     0.15800
C3881       C  0.69106864  0.06370974  0.08776660     0.37500
C3882       C  0.80464165  0.06732494  0.07025802     0.37400
N3883       N  0.66779279  0.06227430  0.08986513    -0.42900
N3884       N  0.82777783  0.06710752  0.06658415    -0.42900
C3885       C  0.71524458  0.95374914  0.05648799     0.00700
C3886       C  0.73662529  0.96054838  0.03905649    -0.11200
C3887       C  0.74514619  0.94272807  0.01886078     0.02900
C3888       C  0.73297487  0.91732182  0.01675103     0.00600
C3889       C  0.71080758  0.91102820  0.03291554    -0.11100
C3890       C  0.70112287  0.92951207  0.05191983     0.02800
H3891       H  0.74778173  0.97906661  0.04192798     0.15800
H3892       H  0.70122285  0.89144737  0.03075644     0.15800
C3893       C  0.67659640  0.92325501  0.06612526     0.37500
C3894       C  0.76742977  0.95010435  0.00176469     0.37400
N3895       N  0.65682626  0.91828340  0.07737497    -0.42900
N3896       N  0.78512552  0.95603473  0.98787927    -0.42900
C3897       C  0.70687795  0.86515940  0.22976044     0.00700
C3898       C  0.72483393  0.85783452  0.25081901    -0.11200
C3899       C  0.74691258  0.84046233  0.24637901     0.02900
C3900       C  0.75297470  0.83204426  0.22002774     0.00600
C3901       C  0.73601381  0.84046869  0.19848993    -0.11100
C3902       C  0.71267833  0.85654615  0.20324590     0.02800
H3903       H  0.72030483  0.86405149  0.27132096     0.15800
H3904       H  0.74076501  0.83409902  0.17808637     0.15800
C3905       C  0.69445887  0.86274891  0.18102589     0.37500
C3906       C  0.76106413  0.82914402  0.26950768     0.37400
N3907       N  0.67986154  0.86775542  0.16319355    -0.42900
N3908       N  0.77134244  0.81943591  0.28835956    -0.42900
C3909       C  0.67176018  0.83600543  0.26741664     0.00700
C3910       C  0.67305278  0.81332324  0.25052571    -0.11200
C3911       C  0.67888207  0.78748018  0.26098264     0.02900
C3912       C  0.68401487  0.78408183  0.28907241     0.00600
C3913       C  0.68272856  0.80701504  0.30594664    -0.11100
C3914       C  0.67677537  0.83287092  0.29529160     0.02800
H3915       H  0.66887072  0.81591055  0.22911999     0.15800
H3916       H  0.68675345  0.80482107  0.32741532     0.15800
C3917       C  0.67681385  0.85609010  0.31303103     0.37500
C3918       C  0.67807448  0.76488762  0.24239143     0.37400
N3919       N  0.67701702  0.87472411  0.32726763    -0.42900
N3920       N  0.67723903  0.74701502  0.22724556    -0.42900
C3921       C  0.69634964  0.96044785  0.17045431     0.00700
C3922       C  0.71360836  0.94385974  0.18662303    -0.11200
C3923       C  0.70381344  0.92802069  0.20792742     0.02900
C3924       C  0.67613823  0.92129694  0.20922829     0.00600
C3925       C  0.65863308  0.93449187  0.19027670    -0.11100
C3926       C  0.66826062  0.95438971  0.17180834     0.02800
H3927       H  0.73518302  0.94347939  0.18354955     0.15800
H3928       H  0.63731272  0.92964591  0.19002753     0.15800
C3929       C  0.64895511  0.96775442  0.15394839     0.37500
C3930       C  0.72201944  0.92306696  0.23042421     0.37400
N3931       N  0.63353137  0.97846896  0.13953129    -0.42900
N3932       N  0.73639719  0.92024753  0.24885426    -0.42900
C3933       C  0.61864754  0.86377948  0.27615565     0.00700
C3934       C  0.61053991  0.83692680  0.27088979    -0.11200
C3935       C  0.59512179  0.82219604  0.28946228     0.02900
C3936       C  0.58607625  0.83450796  0.31346698     0.00600
C3937       C  0.59252164  0.86188610  0.31811868    -0.11100
C3938       C  0.60896279  0.87639174  0.29997174     0.02800
H3939       H  0.61744720  0.82687623  0.25267907     0.15800
H3940       H  0.58523586  0.87170245  0.33631108     0.15800
C3941       C  0.61680746  0.90357855  0.30704818     0.37500
C3942       C  0.58962949  0.79400112  0.28408393     0.37400
N3943       N  0.62309251  0.92534709  0.31295618    -0.42900
N3944       N  0.58548808  0.77127871  0.27999477    -0.42900
C3945       C  0.61766049  0.91776219  0.24052004     0.00700
C3946       C  0.59277217  0.90627685  0.23384581    -0.11200
C3947       C  0.56878962  0.92140632  0.23570159     0.02900
C3948       C  0.56955638  0.94889729  0.24342279     0.00600
C3949       C  0.59451944  0.96086572  0.24925687    -0.11100
C3950       C  0.61865550  0.94541218  0.24795762     0.02800
H3951       H  0.59196215  0.88492483  0.22841511     0.15800
H3952       H  0.59505714  0.98202983  0.25536478     0.15800
C3953       C  0.64378662  0.95777081  0.25595174     0.37500
C3954       C  0.54365538  0.90742176  0.23185160     0.37400
N3955       N  0.66394347  0.96763151  0.26242175    -0.42900
N3956       N  0.52396711  0.89529549  0.22925105    -0.42900
C3957       C  0.28922039  0.82579339  0.23435250     0.00700
C3958       C  0.31033321  0.80934901  0.22420900    -0.11200
C3959       C  0.33659721  0.81073278  0.23491471     0.02900
C3960       C  0.34220276  0.82924950  0.25579525     0.00600
C3961       C  0.32096316  0.84525083  0.26641239    -0.11100
C3962       C  0.29443579  0.84327389  0.25621314     0.02800
H3963       H  0.30634816  0.79570846  0.20748815     0.15800
H3964       H  0.32531046  0.86014767  0.28186232     0.15800
C3965       C  0.27330960  0.86038102  0.26743365     0.37500
C3966       C  0.35769449  0.79374619  0.22341869     0.37400
N3967       N  0.25637919  0.87403914  0.27655238    -0.42900
N3968       N  0.37452276  0.78002461  0.21420916    -0.42900
C3969       C  0.37686645  0.79955923  0.29688049     0.00700
C3970       C  0.38535609  0.77415157  0.28755388    -0.11200
C3971       C  0.37451900  0.75080764  0.29829378     0.02900
C3972       C  0.35547412  0.75306710  0.31925506     0.00600
C3973       C  0.34703026  0.77855105  0.32876202    -0.11100
C3974       C  0.35718618  0.80197731  0.31716946     0.02800
H3975       H  0.39996478  0.77277833  0.27134437     0.15800
H3976       H  0.33254550  0.78005134  0.34508016     0.15800
C3977       C  0.34716912  0.82809383  0.32628841     0.37500
C3978       C  0.38396326  0.72486251  0.28806888     0.37400
N3979       N  0.33894308  0.84889959  0.33385188    -0.42900
N3980       N  0.39149502  0.70414412  0.27970868    -0.42900
C3981       C  0.37362259  0.87614069  0.23246486     0.00700
C3982       C  0.35916298  0.89697574  0.24555184    -0.11200
C3983       C  0.34241757  0.91544738  0.23118659     0.02900
C3984       C  0.34020993  0.91403697  0.20258787     0.00600
C3985       C  0.35507957  0.89331259  0.18935646    -0.11100
C3986       C  0.37156895  0.87446097  0.20401068     0.02800
H3987       H  0.35983472  0.89791288  0.26743943     0.15800
H3988       H  0.35377592  0.89182182  0.16755129     0.15800
C3989       C  0.38582887  0.85328895  0.18949309     0.37500
C3990       C  0.32621828  0.93430152  0.24679517     0.37400
N3991       N  0.39733867  0.83640521  0.17775524    -0.42900
N3992       N  0.31332107  0.94926843  0.25959181    -0.42900
C3993       C  0.43519650  0.82159757  0.29985716     0.00700
C3994       C  0.45803544  0.80874453  0.28816000    -0.11200
C3995       C  0.47984185  0.79743646  0.30397507     0.02900
C3996       C  0.48000068  0.79879637  0.33285363     0.00600
C3997       C  0.45770874  0.81319527  0.34412894    -0.11100
C3998       C  0.43553997  0.82356501  0.32846483     0.02800
H3999       H  0.45869541  0.80705883  0.26634235     0.15800
H4000       H  0.45753675  0.81743227  0.36544410     0.15800
C4001       C  0.41396151  0.83699391  0.34294132     0.37500
C4002       C  0.50206422  0.78492444  0.28958684     0.37400
N4003       N  0.39745982  0.84757975  0.35587036    -0.42900
N4004       N  0.51980666  0.77492854  0.27785999    -0.42900
C4005       C  0.43075595  0.87354120  0.25939040     0.00700
C4006       C  0.44398923  0.87748563  0.23483256    -0.11200
C4007       C  0.45803990  0.90140162  0.23019751     0.02900
C4008       C  0.45987140  0.92075804  0.25110977     0.00600
C4009       C  0.44618183  0.91661145  0.27542639    -0.11100
C4010       C  0.43095544  0.89375320  0.27932784     0.02800
H4011       H  0.44217932  0.86249620  0.21889521     0.15800
H4012       H  0.44606059  0.93209161  0.29103483     0.15800
C4013       C  0.41281124  0.89364816  0.30205635     0.37500
C4014       C  0.46961145  0.90566189  0.20388554     0.37400
N4015       N  0.39772936  0.89468485  0.31978722    -0.42900
N4016       N  0.47883340  0.90897444  0.18274673    -0.42900
C4017       C  0.52177433  0.28296666  0.36310968     0.00700
C4018       C  0.50297611  0.30284129  0.37213537    -0.11200
C4019       C  0.50352031  0.32962522  0.36286458     0.02900
C4020       C  0.52200708  0.33689437  0.34269954     0.00600
C4021       C  0.54253956  0.31804821  0.33570401    -0.11100
C4022       C  0.54331720  0.29172720  0.34669519     0.02800
H4023       H  0.48693936  0.29756602  0.38580833     0.15800
H4024       H  0.55777607  0.32379938  0.32123243     0.15800
C4025       C  0.56699020  0.27492741  0.34170929     0.37500
C4026       C  0.48555340  0.34923182  0.37535932     0.37400
N4027       N  0.58624862  0.26174177  0.33791184    -0.42900
N4028       N  0.47144580  0.36449872  0.38648476    -0.42900
C4029       C  0.42036021  0.23084299  0.45744122     0.00700
C4030       C  0.42605353  0.20257607  0.45680618    -0.11200
C4031       C  0.44229955  0.19060348  0.43617717     0.02900
C4032       C  0.45282415  0.20675135  0.41493176     0.00600
C4033       C  0.44414801  0.23423411  0.41442552    -0.11100
C4034       C  0.43105133  0.24664221  0.43633631     0.02800
H4035       H  0.41764611  0.18974597  0.47234111     0.15800
H4036       H  0.44814958  0.24679946  0.39708059     0.15800
C4037       C  0.43188517  0.27592368  0.43783375     0.37500
C4038       C  0.44717797  0.16160444  0.43692489     0.37400
N4039       N  0.43362933  0.29934449  0.43886800    -0.42900
N4040       N  0.45102398  0.13831436  0.43750488    -0.42900
C4041       C  0.55736975  0.19142153  0.44586183     0.00700
C4042       C  0.54965366  0.21397199  0.46171865    -0.11200
C4043       C  0.56818845  0.22686303  0.47853160     0.02900
C4044       C  0.59554264  0.21812177  0.47886050     0.00600
C4045       C  0.60340321  0.19535892  0.46362439    -0.11100
C4046       C  0.58446740  0.18160994  0.44764274     0.02800
H4047       H  0.52932015  0.22252140  0.46024908     0.15800
H4048       H  0.62437007  0.18831794  0.46427312     0.15800
C4049       C  0.59324619  0.15729054  0.43374002     0.37500
C4050       C  0.55903230  0.25072269  0.49307268     0.37400
N4051       N  0.60033938  0.13774734  0.42265996    -0.42900
N4052       N  0.55164798  0.27018287  0.50409757    -0.42900
C4053       C  0.29663205  0.12426276  0.24225166     0.00700
C4054       C  0.27463022  0.11545729  0.25725755    -0.11200
C4055       C  0.24905742  0.12798456  0.25452637     0.02900
C4056       C  0.24490428  0.14976517  0.23580845     0.00600
C4057       C  0.26722398  0.15830019  0.22060676    -0.11100
C4058       C  0.29286335  0.14581969  0.22372708     0.02800
H4059       H  0.27767124  0.09909080  0.27178326     0.15800
H4060       H  0.26465413  0.17451786  0.20587667     0.15800
C4061       C  0.31476718  0.15482233  0.20699843     0.37500
C4062       C  0.22782197  0.11777889  0.27148708     0.37400
N4063       N  0.33225886  0.16203986  0.19348512    -0.42900
N4064       N  0.21093106  0.10952662  0.28517422    -0.42900
C4065       C  0.34630599  0.21049788  0.27626078     0.00700
C4066       C  0.32887806  0.19438568  0.29173541    -0.11200
C4067       C  0.32746717  0.16646987  0.28763026     0.02900
C4068       C  0.34340304  0.15433810  0.26761878     0.00600
C4069       C  0.36143144  0.17001359  0.25270586    -0.11100
C4070       C  0.36317149  0.19798302  0.25692455     0.02800
H4071       H  0.31628841  0.20362664  0.30719451     0.15800
H4072       H  0.37380367  0.16029025  0.23741622     0.15800
C4073       C  0.38160941  0.21324535  0.24056109     0.37500
C4074       C  0.31006826  0.15055789  0.30447932     0.37400
N4075       N  0.39650086  0.22535403  0.22744334    -0.42900
N4076       N  0.29613518  0.13788984  0.31811892    -0.42900
C4077       C  0.38608775  0.11567312  0.28671353     0.00700
C4078       C  0.38150049  0.11733718  0.31455883    -0.11200
C4079       C  0.40068405  0.12870058  0.33211303     0.02900
C4080       C  0.42477530  0.13975507  0.32166700     0.00600
C4081       C  0.42955657  0.13709114  0.29367666    -0.11100
C4082       C  0.41070209  0.12489633  0.27636481     0.02800
H4083       H  0.36254813  0.11007733  0.32256426     0.15800
H4084       H  0.44775200  0.14526571  0.28499293     0.15800
C4085       C  0.41655911  0.12305537  0.24790953     0.37500
C4086       C  0.39518137  0.12797811  0.36065426     0.37400
N4087       N  0.42125474  0.12161275  0.22509453    -0.42900
N4088       N  0.39053290  0.12726665  0.38351485    -0.42900
C4089       C  0.31775532  0.06389367  0.22899365     0.00700
C4090       C  0.30283726  0.07123306  0.20564713    -0.11200
C4091       C  0.29000990  0.05156509  0.18977183     0.02900
C4092       C  0.29524612  0.02354401  0.19466392     0.00600
C4093       C  0.30614666  0.01669304  0.22021550    -0.11100
C4094       C  0.31731586  0.03640230  0.23728847     0.02800
H4095       H  0.30091078  0.09236513  0.19968710     0.15800
H4096       H  0.30463694  0.99619537  0.22773229     0.15800
C4097       C  0.32609525  0.02805171  0.26397121     0.37500
C4098       C  0.26987024  0.06077450  0.17027939     0.37400
N4099       N  0.33269808  0.02110605  0.28542815    -0.42900
N4100       N  0.25352577  0.06819532  0.15489491    -0.42900
C4101       C  0.37873268  0.06143921  0.25551021     0.00700
C4102       C  0.39002340  0.05090110  0.27946657    -0.11200
C4103       C  0.41386889  0.03510012  0.27926665     0.02900
C4104       C  0.42709480  0.02968274  0.25449293     0.00600
C4105       C  0.41486166  0.03931411  0.23036269    -0.11100
C4106       C  0.39102268  0.05516935  0.23070608     0.02800
H4107       H  0.38067196  0.05601158  0.29859703     0.15800
H4108       H  0.42446630  0.03543332  0.21110767     0.15800
C4109       C  0.38093818  0.06669306  0.20561093     0.37500
C4110       C  0.42442636  0.02565164  0.30498177     0.37400
N4111       N  0.37290263  0.07607596  0.18555954    -0.42900
N4112       N  0.43277490  0.01820210  0.32568489    -0.42900
C4113       C  0.65943297  0.15340540  0.24499353     0.00700
C4114       C  0.67700437  0.15512955  0.26731436    -0.11200
C4115       C  0.70509090  0.15656955  0.26389344     0.02900
C4116       C  0.71619898  0.15612575  0.23766205     0.00600
C4117       C  0.69871087  0.15379472  0.21533950    -0.11100
C4118       C  0.67053858  0.15275369  0.21875640     0.02800
H4119       H  0.66878927  0.15466228  0.28755381     0.15800
H4120       H  0.70694999  0.15431272  0.19510770     0.15800
C4121       C  0.65349706  0.15176242  0.19496211     0.37500
C4122       C  0.72217256  0.15822015  0.28767424     0.37400
N4123       N  0.64008126  0.15099709  0.17569468    -0.42900
N4124       N  0.73582636  0.15950316  0.30674740    -0.42900
C4125       C  0.61810250  0.18997402  0.27377954     0.00700
C4126       C  0.62438721  0.19572220  0.30060110    -0.11200
C4127       C  0.63355581  0.22129511  0.30759718     0.02900
C4128       C  0.63618689  0.24129518  0.28726728     0.00600
C4129       C  0.62807604  0.23598024  0.26072122    -0.11100
C4130       C  0.61876222  0.21039291  0.25390748     0.02800
H4131       H  0.62389682  0.17964328  0.31559636     0.15800
H4132       H  0.63012402  0.25140527  0.24520192     0.15800
C4133       C  0.61072064  0.20509328  0.22635899     0.37500
C4134       C  0.64279730  0.22531645  0.33505718     0.37400
N4135       N  0.60412142  0.20089662  0.20429455    -0.42900
N4136       N  0.65018523  0.22818453  0.35709610    -0.42900
C4137       C  0.63092398  0.10097076  0.22830353     0.00700
C4138       C  0.65687025  0.09112437  0.23571603    -0.11200
C4139       C  0.67215867  0.07510880  0.21799601     0.02900
C4140       C  0.66120706  0.06795788  0.19276560     0.00600
C4141       C  0.63474636  0.07631310  0.18588226    -0.11100
C4142       C  0.61957294  0.09291290  0.20335128     0.02800
H4143       H  0.66573913  0.09711628  0.25486835     0.15800
H4144       H  0.62624318  0.07026674  0.16658908     0.15800
C4145       C  0.59335582  0.10292713  0.19430220     0.37500
C4146       C  0.69947865  0.06712561  0.22550681     0.37400
N4147       N  0.57241371  0.11092258  0.18673982    -0.42900
N4148       N  0.72147835  0.06097892  0.23149516    -0.42900
C4149       C  0.57131871  0.15519863  0.29340073     0.00700
C4150       C  0.54982859  0.17338280  0.28753204    -0.11200
C4151       C  0.53080489  0.18102659  0.30741397     0.02900
C4152       C  0.53315293  0.17088152  0.33438055     0.00600
C4153       C  0.55439427  0.15192741  0.33969737    -0.11100
C4154       C  0.57344906  0.14452983  0.31984517     0.02800
H4155       H  0.54788484  0.18167465  0.26727664     0.15800
H4156       H  0.55629274  0.14246211  0.35935122     0.15800
C4157       C  0.59579419  0.12673135  0.32753126     0.37500
C4158       C  0.50904074  0.19946494  0.29941052     0.37400
N4159       N  0.61386677  0.11279886  0.33402687    -0.42900
N4160       N  0.49166505  0.21436109  0.29308249    -0.42900
C4161       C  0.57522649  0.10135548  0.25915515     0.00700
C4162       C  0.54989736  0.10532271  0.24657300    -0.11200
C4163       C  0.53286525  0.08336713  0.24267869     0.02900
C4164       C  0.54112050  0.05768642  0.25245901     0.00600
C4165       C  0.56589618  0.05409616  0.26610033    -0.11100
C4166       C  0.58318081  0.07571149  0.26930509     0.02800
H4167       H  0.54406255  0.12523734  0.23874640     0.15800
H4168       H  0.57188496  0.03419558  0.27391067     0.15800
C4169       C  0.60888665  0.07101629  0.28291105     0.37500
C4170       C  0.50717687  0.08753649  0.22894055     0.37400
N4171       N  0.62948245  0.06706465  0.29373485    -0.42900
N4172       N  0.48659994  0.09074410  0.21786724    -0.42900
loop_ 
_geom_bond_atom_site_label_1 
_geom_bond_atom_site_label_2 
_geom_bond_distance 
_geom_bond_site_symmetry_2 
_ccdc_geom_bond_type 
N1            C5   1.349       .  A
N1            C2   1.355       .  A
N1         C4125   1.416       .  S
C2            C3   1.375       .  A
C2         C4113   1.490       .  S
C3            C4   1.389       .  A
C3         C4137   1.485       .  S
C4            C5   1.384       .  A
C4         C4161   1.447       .  S
C5         C4149   1.505       .  S
N6           C10   1.340       .  A
N6            C7   1.349       .  A
N6         C4068   1.428       .  S
C7            C8   1.399       .  A
C7         C4053   1.482       .  S
C8            C9   1.407       .  A
C8         C4089   1.500       .  S
C9           C10   1.384       .  A
C9         C4101   1.475       .  S
C10        C4077   1.486       .  S
C11          C13   1.559       .  S
C11          C15   1.530       .  S
C11          C14   1.530       .  S
C11        C4152   1.561       .  S
C12          C16   1.545       .  S
C12          C18   1.543       .  S
C12          C17   1.556       .  S
C12        C4032   1.574       .  S
C13          C21   1.391       .  A
C13          C16   1.427       .  A
C14          C25   1.377       .  A
C14          C17   1.390       .  A
C15          C29   1.372       .  A
C15          C18   1.390       .  A
C16          C19   1.373       .  A
C17          C23   1.382       .  A
C18          C26   1.384       .  A
C19          N20   1.351       .  A
C19          H32   1.081       .  S
N20          C21   1.356       .  A
N20        C4041   1.447       .  S
C21          H22   1.082       .  S
C23          N24   1.359       .  A
C23          H33   1.079       .  S
N24          C25   1.360       .  A
N24        C4017   1.454       .  S
C25          H31   1.078       .  S
C26          N27   1.370       .  A
C26          H28   1.080       .  S
N27          C29   1.360       .  A
N27        C4080   1.455       .  S
C29          H30   1.082       .  S
N34          C38   1.356       .  A
N34          C35   1.354       .  A
N34        C3969   1.412       .  S
C35          C36   1.369       .  A
C35        C3960   1.483       .  S
C36          C37   1.399       .  A
C36        C3981   1.502       .  S
C37          C38   1.405       .  A
C37        C4005   1.443       .  S
C38        C3993   1.542       .  S
N39          C43   1.342       .  A
N39          C40   1.356       .  A
N39        C3909   1.441       .  S
C40          C41   1.412       .  A
C40        C3897   1.485       .  S
C41          C42   1.418       .  A
C41        C3924   1.532       .  S
C42          C43   1.406       .  A
C42        C3945   1.469       .  S
C43        C3933   1.516       .  S
C44          C46   1.527       .  S
C44          C48   1.552       .  S
C44          C47   1.562       .  S
C44        C3873   1.581       .  S
C45          C49   1.530       .  S
C45          C51   1.538   1_565  S
C45          C50   1.545       .  S
C45        C3921   1.582       .  S
C46          C54   1.364   1_545  A
C46          C49   1.395   1_545  A
C47          C58   1.400       .  A
C47          C50   1.423   1_545  A
C48          C62   1.382       .  A
C48          C51   1.412       .  A
C49          C52   1.374       .  A
C50          C56   1.375       .  A
C51          C59   1.368       .  A
C52          N53   1.364       .  A
C52          H65   1.082       .  S
N53          C54   1.352       .  A
N53        C3885   1.438       .  S
C54          H55   1.081   1_565  S
C56          N57   1.338   1_565  A
C56          H66   1.079       .  S
N57          C58   1.354       .  A
N57        C3861   1.436       .  S
C58          H64   1.082       .  S
C59          N60   1.351       .  A
C59          H61   1.083       .  S
N60          C62   1.362       .  A
N60        C4140   1.430       .  S
C62          H63   1.082       .  S
C67          C69   1.566       .  S
C67          C71   1.538       .  S
C67          C70   1.577       .  S
C67        C3852   1.611       .  S
C68          C72   1.555       .  S
C68          C74   1.558       .  S
C68          C73   1.543       .  S
C68        C3996   1.596       .  S
C69          C77   1.396       .  A
C69          C72   1.416       .  A
C70          C81   1.399       .  A
C70          C73   1.408       .  A
C71          C85   1.367       .  A
C71          C74   1.407       .  A
C72          C75   1.381       .  A
C73          C79   1.380       .  A
C74          C82   1.399       .  A
C75          N76   1.356       .  A
C75          H88   1.082       .  S
N76          C77   1.368       .  A
N76        C3936   1.451       .  S
C77          H78   1.081       .  S
C79          N80   1.358       .  A
C79          H89   1.082       .  S
N80          C81   1.370       .  A
N80        C3825   1.460       .  S
C81          H87   1.082       .  S
C82          N83   1.361       .  A
C82          H84   1.081       .  S
N83          C85   1.343       .  A
N83        C3837   1.437       .  S
C85          H86   1.082       .  S
C90          C92   1.565   1_545  S
C90          C94   1.550       .  S
C90          C93   1.538   1_545  S
C90        C4092   1.546       .  S
C91          C95   1.566       .  S
C91          C97   1.535       .  S
C91          C96   1.551       .  S
C91        C3813   1.550       .  S
C92         C100   1.382       .  A
C92          C95   1.411       .  A
C93         C104   1.385   1_565  A
C93          C96   1.388       .  A
C94         C108   1.394       .  A
C94          C97   1.376   1_545  A
C95          C98   1.400       .  A
C96         C102   1.390       .  A
C97         C105   1.371       .  A
C98          N99   1.368       .  A
C98         H111   1.079       .  S
N99         C100   1.357       .  A
N99        C3984   1.461       .  S
C100        H101   1.080       .  S
C102        N103   1.364       .  A
C102        H112   1.082       .  S
N103        C104   1.362   1_565  A
N103       C3789   1.454       .  S
C104        H110   1.082       .  S
C105        N106   1.354   1_565  A
C105        H107   1.079       .  S
N106        C108   1.370       .  A
N106       C3801   1.462       .  S
C108        H109   1.075       .  S
N113        C117   1.342       .  A
N113        C114   1.336       .  A
N113       C3729   1.426       .  S
C114        C115   1.385       .  A
C114       C3753   1.470       .  S
C115        C116   1.384       .  A
C115       C3780   1.467       .  S
C116        C117   1.381       .  A
C116       C3765   1.473       .  S
C117       C3741   1.455       .  S
N118        C122   1.367       .  A
N118        C119   1.360       .  A
N118       C3684   1.424       .  S
C119        C120   1.367       .  A
C119       C3669   1.492       .  S
C120        C121   1.409       .  A
C120       C3708   1.512       .  S
C121        C122   1.425       .  A
C121       C3720   1.466       .  S
C122       C3696   1.560       .  S
C123        C125   1.536       .  S
C123        C127   1.542       .  S
C123        C126   1.563       .  S
C123       C3660   1.611       .  S
C124        C128   1.533       .  S
C124        C130   1.550       .  S
C124        C129   1.554       .  S
C124       C3693   1.601       .  S
C125        C133   1.360       .  A
C125        C128   1.397       .  A
C126        C137   1.392       .  A
C126        C129   1.419       .  A
C127        C141   1.372       .  A
C127        C130   1.416       .  A
C128        C131   1.371       .  A
C129        C135   1.382       .  A
C130        C138   1.372       .  A
C131        N132   1.360       .  A
C131        H144   1.074       .  S
N132        C133   1.367       .  A
N132       C3645   1.450       .  S
C133        H134   1.080       .  S
C135        N136   1.362       .  A
C135        H145   1.081       .  S
N136        C137   1.365       .  A
N136       C3633   1.465       .  S
C137        H143   1.080       .  S
C138        N139   1.352       .  A
C138        H140   1.079       .  S
N139        C141   1.357       .  A
N139       C3768   1.422       .  S
C141        H142   1.083       .  S
N146        C150   1.349       .  A
N146        C147   1.363       .  A
N146       C3585   1.435       .  S
C147        C148   1.395       .  A
C147       C3576   1.474       .  S
C148        C149   1.435       .  A
C148       C3597   1.568       .  S
C149        C150   1.418       .  A
C149       C3621   1.451       .  S
C150       C3612   1.552       .  S
N151        C155   1.351       .  A
N151        C152   1.358       .  A
N151       C3513   1.448       .  S
C152        C153   1.393       .  A
C152       C3525   1.458       .  S
C153        C154   1.398       .  A
C153       C3549   1.526       .  S
C154        C155   1.398       .  A
C154       C3561   1.459       .  S
C155       C3537   1.500       .  S
C156        C158   1.518       .  S
C156        C160   1.528       .  S
C156        C159   1.552       .  S
C156       C3492   1.549       .  S
C157        C161   1.544   1_455  S
C157        C163   1.542       .  S
C157        C162   1.555       .  S
C157       C3540   1.557   1_455  S
C158        C166   1.360       .  A
C158        C161   1.394   1_455  A
C159        C170   1.385       .  A
C159        C162   1.402       .  A
C160        C174   1.374       .  A
C160        C163   1.410       .  A
C161        C164   1.386       .  A
C162        C168   1.385       .  A
C163        C171   1.376       .  A
C164        N165   1.363       .  A
C164        H177   1.082       .  S
N165        C166   1.349   1_655  A
N165       C3504   1.431       .  S
C166        H167   1.083       .  S
C168        N169   1.355       .  A
C168        H178   1.081   1_455  S
N169        C170   1.358       .  A
N169       C3477   1.442       .  S
C170        H176   1.081       .  S
C171        N172   1.351       .  A
C171        H173   1.083       .  S
N172        C174   1.346       .  A
N172       C3756   1.422       .  S
C174        H175   1.083       .  S
C179        C181   1.564       .  S
C179        C183   1.571       .  S
C179        C182   1.549       .  S
C179       C3609   1.607       .  S
C180        C184   1.535       .  S
C180        C186   1.553       .  S
C180        C185   1.574       .  S
C180       C3465   1.600       .  S
C181        C189   1.404       .  A
C181        C184   1.408       .  A
C182        C193   1.384       .  A
C182        C185   1.415       .  A
C183        C197   1.397       .  A
C183        C186   1.412       .  A
C184        C187   1.375       .  A
C185        C191   1.393       .  A
C186        C194   1.393       .  A
C187        N188   1.347       .  A
C187        H200   1.080       .  S
N188        C189   1.360       .  A
N188       C3453   1.453       .  S
C189        H190   1.081       .  S
C191        N192   1.363       .  A
C191        H201   1.081       .  S
N192        C193   1.359       .  A
N192       C3441   1.450       .  S
C193        H199   1.082       .  S
C194        N195   1.363       .  A
C194        H196   1.082       .  S
N195        C197   1.364       .  A
N195       C3552   1.461       .  S
C197        H198   1.081       .  S
C202        C204   1.531       .  S
C202        C206   1.558   1_655  S
C202        C205   1.556       .  S
C202       C3600   1.596       .  S
C203        C207   1.537   1_455  S
C203        C209   1.579       .  S
C203        C208   1.569       .  S
C203       C3417   1.614       .  S
C204        C212   1.383       .  A
C204        C207   1.391       .  A
C205        C216   1.387       .  A
C205        C208   1.413   1_655  A
C206        C220   1.380       .  A
C206        C209   1.433       .  A
C207        C210   1.376       .  A
C208        C214   1.394       .  A
C209        C217   1.410       .  A
C210        N211   1.354       .  A
C210        H223   1.082       .  S
N211        C212   1.356       .  A
N211       C3432   1.441       .  S
C212        H213   1.081       .  S
C214        N215   1.369   1_455  A
C214        H224   1.082       .  S
N215        C216   1.366       .  A
N215       C3408   1.475       .  S
C216        H222   1.077       .  S
C217        N218   1.369       .  A
C217        H219   1.082       .  S
N218        C220   1.346       .  A
N218       C3705   1.461       .  S
C220        H221   1.077       .  S
N225        C229   1.348       .  A
N225        C226   1.349       .  A
N225       C3345   1.434       .  S
C226        C227   1.397       .  A
C226       C3357   1.486       .  S
C227        C228   1.397       .  A
C227       C3381   1.489       .  S
C228        C229   1.390       .  A
C228       C3393   1.488       .  S
C229       C3372   1.478       .  S
N230        C234   1.352       .  A
N230        C231   1.365       .  A
N230       C3285   1.447       .  S
C231        C232   1.403       .  A
C231       C3297   1.466       .  S
C232        C233   1.420       .  A
C232       C3312   1.561       .  S
C233        C234   1.415       .  A
C233       C3336   1.455       .  S
C234       C3324   1.543       .  S
C235        C237   1.546       .  S
C235        C239   1.542       .  S
C235        C238   1.572       .  S
C235       C3273   1.631       .  S
C236        C240   1.555       .  S
C236        C242   1.556       .  S
C236        C241   1.539       .  S
C236       C3309   1.626       .  S
C237        C245   1.374       .  A
C237        C240   1.431       .  A
C238        C249   1.392       .  A
C238        C241   1.420       .  A
C239        C253   1.382       .  A
C239        C242   1.428       .  A
C240        C243   1.395       .  A
C241        C247   1.367       .  A
C242        C250   1.390       .  A
C243        N244   1.351       .  A
C243        H256   1.083       .  S
N244        C245   1.346       .  A
N244       C3261   1.434       .  S
C245        H246   1.080       .  S
C247        N248   1.350       .  A
C247        H257   1.082       .  S
N248        C249   1.367       .  A
N248       C3249   1.441       .  S
C249        H255   1.082       .  S
C250        N251   1.352       .  A
C250        H252   1.081       .  S
N251        C253   1.347       .  A
N251       C3384   1.436       .  S
C253        H254   1.083       .  S
N258        C262   1.347       .  A
N258        C259   1.359       .  A
N258       C3192   1.437       .  S
C259        C260   1.404       .  A
C259       C3201   1.495       .  S
C260        C261   1.413       .  A
C260       C3225   1.513       .  S
C261        C262   1.393       .  A
C261       C3237   1.478       .  S
C262       C3213   1.502       .  S
N263        C267   1.341       .  A
N263        C264   1.361       .  A
N263       C3141   1.431       .  S
C264        C265   1.402       .  A
C264       C3129   1.477       .  S
C265        C266   1.420       .  A
C265       C3153   1.541       .  S
C266        C267   1.404       .  A
C266       C3180   1.451       .  S
C267       C3165   1.535       .  S
C268        C270   1.535   1_554  S
C268        C272   1.538       .  S
C268        C271   1.567   1_554  S
C268       C3105   1.597       .  S
C269        C273   1.545       .  S
C269        C275   1.541   1_556  S
C269        C274   1.563       .  S
C269       C3156   1.604       .  S
C270        C278   1.371       .  A
C270        C273   1.408       .  A
C271        C282   1.388   1_556  A
C271        C274   1.418       .  A
C272        C286   1.377       .  A
C272        C275   1.407       .  A
C273        C276   1.381       .  A
C274        C280   1.386       .  A
C275        C283   1.371       .  A
C276        N277   1.356       .  A
C276        H289   1.082       .  S
N277        C278   1.353       .  A
N277       C3120   1.443       .  S
C278        H279   1.080       .  S
C280        N281   1.367       .  A
C280        H290   1.070       .  S
N281        C282   1.369   1_556  A
N281       C3093   1.478       .  S
C282        H288   1.080       .  S
C283        N284   1.355       .  A
C283        H285   1.083       .  S
N284        C286   1.356       .  A
N284       C3369   1.429       .  S
C286        H287   1.082       .  S
C291        C293   1.534       .  S
C291        C295   1.553       .  S
C291        C294   1.569       .  S
C291       C3228   1.566       .  S
C292        C296   1.546       .  S
C292        C298   1.581       .  S
C292        C297   1.579       .  S
C292       C3084   1.587       .  S
C293        C301   1.393       .  A
C293        C296   1.379       .  A
C294        C305   1.394       .  A
C294        C297   1.408       .  A
C295        C309   1.386       .  A
C295        C298   1.410       .  A
C296        C299   1.383       .  A
C297        C303   1.400       .  A
C298        C306   1.418       .  A
C299        N300   1.359       .  A
C299        H312   1.080       .  S
N300        C301   1.365       .  A
N300       C3069   1.459       .  S
C301        H302   1.082       .  S
C303        N304   1.374       .  A
C303        H313   1.077       .  S
N304        C305   1.368       .  A
N304       C3057   1.485       .  S
C305        H311   1.075       .  S
C306        N307   1.378       .  A
C306        H308   1.082       .  S
N307        C309   1.357       .  A
N307       C3168   1.480       .  S
C309        H310   1.082       .  S
C314        C316   1.533   1_556  S
C314        C318   1.534       .  S
C314        C317   1.565   1_556  S
C314       C3048   1.581       .  S
C315        C319   1.578       .  S
C315        C321   1.561       .  S
C315        C320   1.546       .  S
C315       C3321   1.596       .  S
C316        C324   1.370       .  A
C316        C319   1.411       .  A
C317        C328   1.388       .  A
C317        C320   1.411       .  A
C318        C332   1.383       .  A
C318        C321   1.407   1_556  A
C319        C322   1.416       .  A
C320        C326   1.380       .  A
C321        C329   1.395   1_554  A
C322        N323   1.371       .  A
C322        H335   1.082       .  S
N323        C324   1.341       .  A
N323       C3033   1.458       .  S
C324        H325   1.080       .  S
C326        N327   1.356       .  A
C326        H336   1.082       .  S
N327        C328   1.358       .  A
N327       C3024   1.444       .  S
C328        H334   1.078   1_554  S
C329        N330   1.365       .  A
C329        H331   1.081   1_556  S
N330        C332   1.359       .  A
N330       C3216   1.460       .  S
C332        H333   1.083       .  S
N337        C341   1.346       .  A
N337        C338   1.351       .  A
N337       C2964   1.426       .  S
C338        C339   1.392       .  A
C338       C2973   1.490       .  S
C339        C340   1.390       .  A
C339       C2988   1.469       .  S
C340        C341   1.380       .  A
C340       C3009   1.470       .  S
C341       C2997   1.487       .  S
N342        C346   1.339       .  A
N342        C343   1.348       .  A
N342       C2913   1.435       .  S
C343        C344   1.386       .  A
C343       C2901   1.457       .  S
C344        C345   1.390       .  A
C344       C2928   1.503       .  S
C345        C346   1.385       .  A
C345       C2949   1.447       .  S
C346       C2937   1.479       .  S
N347        C351   1.343       .  A
N347        C348   1.359       .  A
N347       C2841   1.454       .  S
C348        C349   1.403       .  A
C348       C2853   1.460       .  S
C349        C350   1.391       .  A
C349       C2877   1.509       .  S
C350        C351   1.389       .  A
C350       C2892   1.463       .  S
C351       C2865   1.478       .  S
N352        C356   1.358       .  A
N352        C353   1.370       .  A
N352       C2781   1.424       .  S
C353        C354   1.405       .  A
C353       C2796   1.492       .  S
C354        C355   1.453       .  A
C354       C2817   1.604       .  S
C355        C356   1.436       .  A
C355       C2829   1.442       .  S
C356       C2805   1.617       .  S
C357        C359   1.540       .  S
C357        C361   1.573       .  S
C357        C360   1.599       .  S
C357       C2769   1.669       .  S
C358        C362   1.540       .  S
C358        C364   1.543       .  S
C358        C363   1.588       .  S
C358       C2808   1.657       .  S
C359        C367   1.366       .  A
C359        C362   1.408       .  A
C360        C371   1.412       .  A
C360        C363   1.438       .  A
C361        C375   1.387       .  A
C361        C364   1.429       .  A
C362        C365   1.378       .  A
C363        C369   1.401       .  A
C364        C372   1.369       .  A
C365        N366   1.358       .  A
C365        H378   1.083       .  S
N366        C367   1.348       .  A
N366       C2760   1.423       .  S
C367        H368   1.080       .  S
C369        N370   1.370       .  A
C369        H379   1.075       .  S
N370        C371   1.377       .  A
N370       C2745   1.493       .  S
C371        H377   1.082       .  S
C372        N373   1.352       .  A
C372        H374   1.082       .  S
N373        C375   1.359       .  A
N373       C2868   1.441       .  S
C375        H376   1.073       .  S
C380        C382   1.560   1_556  S
C380        C384   1.563       .  S
C380        C383   1.572       .  S
C380       C2820   1.623       .  S
C381        C385   1.534       .  S
C381        C387   1.530       .  S
C381        C386   1.565       .  S
C381       C2733   1.607       .  S
C382        C390   1.381       .  A
C382        C385   1.420       .  A
C383        C394   1.398       .  A
C383        C386   1.414   1_556  A
C384        C398   1.402       .  A
C384        C387   1.417   1_556  A
C385        C388   1.378       .  A
C386        C392   1.386       .  A
C387        C395   1.358   1_554  A
C388        N389   1.357       .  A
C388        H401   1.082       .  S
N389        C390   1.361       .  A
N389       C3000   1.449       .  S
C390        H391   1.081       .  S
C392        N393   1.356       .  A
C392        H402   1.079       .  S
N393        C394   1.365   1_554  A
N393       C2712   1.458       .  S
C394        H400   1.081       .  S
C395        N396   1.339       .  A
C395        H397   1.080   1_556  S
N396        C398   1.365       .  A
N396       C2724   1.440       .  S
C398        H399   1.082       .  S
C403        C405   1.519       .  S
C403        C407   1.533       .  S
C403        C406   1.543       .  S
C403       C2880   1.569       .  S
C404        C408   1.534   1_554  S
C404        C410   1.549       .  S
C404        C409   1.567       .  S
C404       C2697   1.585       .  S
C405        C413   1.364       .  A
C405        C408   1.397       .  A
C406        C417   1.377       .  A
C406        C409   1.416   1_556  A
C407        C421   1.370   1_556  A
C407        C410   1.422   1_556  A
C408        C411   1.372       .  A
C409        C415   1.391       .  A
C410        C418   1.387       .  A
C411        N412   1.354       .  A
C411        H424   1.082       .  S
N412        C413   1.343       .  A
N412       C2688   1.412       .  S
C413        H414   1.082       .  S
C415        N416   1.359       .  A
C415        H425   1.077       .  S
N416        C417   1.351   1_554  A
N416       C2673   1.450       .  S
C417        H423   1.081       .  S
C418        N419   1.354       .  A
C418        H420   1.083       .  S
N419        C421   1.348       .  A
N419       C2940   1.431       .  S
C421        H422   1.084       .  S
C426        C428   1.539       .  S
C426        C430   1.542       .  S
C426        C429   1.544       .  S
C426       C2652   1.545       .  S
C427        C431   1.554       .  S
C427        C433   1.541       .  S
C427        C432   1.526       .  S
C427       C2985   1.539       .  S
C428        C436   1.389       .  A
C428        C431   1.411       .  A
C429        C440   1.381       .  A
C429        C432   1.390       .  A
C430        C444   1.368       .  A
C430        C433   1.403       .  A
C431        C434   1.389       .  A
C432        C438   1.365       .  A
C433        C441   1.398       .  A
C434        N435   1.352       .  A
C434        H447   1.081       .  S
N435        C436   1.352       .  A
N435       C2925   1.443       .  S
C436        H437   1.083       .  S
C438        N439   1.346       .  A
C438        H448   1.082       .  S
N439        C440   1.358       .  A
N439       C2637   1.426       .  S
C440        H446   1.082       .  S
C441        N442   1.358       .  A
C441        H443   1.079       .  S
N442        C444   1.346       .  A
N442       C2661   1.454       .  S
C444        H445   1.071       .  S
N449        C453   1.355       .  A
N449        C450   1.352       .  A
N449       C2589   1.429       .  S
C450        C451   1.402       .  A
C450       C2601   1.525       .  S
C451        C452   1.389       .  A
C451       C2625   1.430       .  S
C452        C453   1.365       .  A
C452       C2613   1.509       .  S
C453       C2577   1.457       .  S
N454        C458   1.346       .  A
N454        C455   1.358       .  A
N454       C2517   1.446       .  S
C455        C456   1.401       .  A
C455       C2529   1.464       .  S
C456        C457   1.396       .  A
C456       C2553   1.516       .  S
C457        C458   1.388       .  A
C457       C2565   1.461       .  S
C458       C2541   1.487       .  S
N459        C463   1.351       .  A
N459        C460   1.352       .  A
N459       C2460   1.416       .  S
C460        C461   1.365       .  A
C460       C2469   1.462       .  S
C461        C462   1.394       .  A
C461       C2493   1.503       .  S
C462        C463   1.389       .  A
C462       C2505   1.429       .  S
C463       C2481   1.523       .  S
N464        C468   1.352       .  A
N464        C465   1.358       .  A
N464       C2397   1.456       .  S
C465        C466   1.387       .  A
C465       C2409   1.442       .  S
C466        C467   1.404       .  A
C466       C2433   1.541       .  S
C467        C468   1.415       .  A
C467       C2448   1.466       .  S
C468       C2421   1.508       .  S
C469        C471   1.552       .  S
C469        C473   1.529       .  S
C469        C472   1.558       .  S
C469       C2373   1.557       .  S
C470        C474   1.556       .  S
C470        C476   1.549       .  S
C470        C475   1.557       .  S
C470       C2484   1.553       .  S
C471        C479   1.393       .  A
C471        C474   1.400       .  A
C472        C483   1.391       .  A
C472        C475   1.406       .  A
C473        C487   1.371       .  A
C473        C476   1.390       .  A
C474        C477   1.386       .  A
C475        C481   1.388       .  A
C476        C484   1.399       .  A
C477        N478   1.365       .  A
C477        H490   1.081       .  S
N478        C479   1.369       .  A
N478       C2424   1.472       .  S
C479        H480   1.080       .  S
C481        N482   1.354       .  A
C481        H491   1.078       .  S
N482        C483   1.359       .  A
N482       C2361   1.447       .  S
C483        H489   1.082       .  S
C484        N485   1.366       .  A
C484        H486   1.082       .  S
N485        C487   1.349       .  A
N485       C2385   1.449       .  S
C487        H488   1.082       .  S
C492        C494   1.566   1_565  S
C492        C496   1.574       .  S
C492        C495   1.538   1_565  S
C492       C2436   1.590       .  S
C493        C497   1.541       .  S
C493        C499   1.536       .  S
C493        C498   1.565       .  S
C493       C2349   1.578       .  S
C494        C502   1.391       .  A
C494        C497   1.408       .  A
C495        C506   1.379       .  A
C495        C498   1.404       .  A
C496        C510   1.413       .  A
C496        C499   1.414   1_565  A
C497        C500   1.388       .  A
C498        C504   1.391       .  A
C499        C507   1.371       .  A
C500        N501   1.359       .  A
C500        H513   1.083       .  S
N501        C502   1.360       .  A
N501       C2616   1.450       .  S
C502        H503   1.081       .  S
C504        N505   1.359       .  A
C504        H514   1.081       .  S
N505        C506   1.353       .  A
N505       C2328   1.440       .  S
C506        H512   1.082   1_545  S
C507        N508   1.342   1_545  A
C507        H509   1.083       .  S
N508        C510   1.370       .  A
N508       C2337   1.454       .  S
C510        H511   1.082       .  S
C515        C517   1.548   1_545  S
C515        C519   1.564       .  S
C515        C518   1.550   1_545  S
C515       C2556   1.563       .  S
C516        C520   1.532       .  S
C516        C522   1.534       .  S
C516        C521   1.560       .  S
C516       C2301   1.550       .  S
C517        C525   1.388       .  A
C517        C520   1.396       .  A
C518        C529   1.383   1_565  A
C518        C521   1.403       .  A
C519        C533   1.400       .  A
C519        C522   1.402   1_545  A
C520        C523   1.381       .  A
C521        C527   1.387       .  A
C522        C530   1.377   1_565  A
C523        N524   1.359       .  A
C523        H536   1.083       .  S
N524        C525   1.362       .  A
N524       C2496   1.451       .  S
C525        H526   1.082       .  S
C527        N528   1.360       .  A
C527        H537   1.075       .  S
N528        C529   1.362   1_565  A
N528       C2289   1.456       .  S
C529        H535   1.081       .  S
C530        N531   1.350       .  A
C530        H532   1.083   1_545  S
N531        C533   1.364       .  A
N531       C2313   1.449       .  S
C533        H534   1.082       .  S
C538        C540   1.538       .  S
C538        C542   1.550       .  S
C538        C541   1.543       .  S
C538       C2604   1.562       .  S
C539        C543   1.524       .  S
C539        C545   1.558       .  S
C539        C544   1.553       .  S
C539       C2265   1.561       .  S
C540        C548   1.388       .  A
C540        C543   1.383       .  A
C541        C552   1.371       .  A
C541        C544   1.397       .  A
C542        C556   1.383       .  A
C542        C545   1.431       .  A
C543        C546   1.368       .  A
C544        C550   1.394       .  A
C545        C553   1.390       .  A
C546        N547   1.355       .  A
C546        H559   1.081       .  S
N547        C548   1.368       .  A
N547       C2277   1.451       .  S
C548        H549   1.082       .  S
C550        N551   1.362       .  A
C550        H560   1.081       .  S
N551        C552   1.343       .  A
N551       C2253   1.434       .  S
C552        H558   1.080       .  S
C553        N554   1.355       .  A
C553        H555   1.083       .  S
N554        C556   1.350       .  A
N554       C2544   1.446       .  S
C556        H557   1.082       .  S
O561       Ni567   1.912       .  S
O561        C582   1.267       .  A
O562       Ni585   1.862       .  S
O562        C571   1.258       .  A
O563       Ni567   1.918       .  S
O563       Ni585   1.885       .  S
O563       Ni579   1.895       .  S
O563        H586   0.966       .  S
C564       C2241   1.456       .  S
C564        O581   1.257       .  A
C564        O573   1.267       .  A
O565       Ni584   1.894       .  S
O565        C571   1.266       .  A
O566       Ni584   1.894       .  S
O566        C568   1.271       .  A
Ni567       O570   1.919       .  S
Ni567       O572   1.907       .  S
C568       C2229   1.464       .  S
C568        O578   1.276       .  A
O569       Ni585   1.895       .  S
O569        C575   1.265       .  A
O570        C575   1.269       .  A
C571       C2217   1.452       .  S
O572        C574   1.269       .  A
O573       Ni584   1.903       .  S
C574       C2856   1.469       .  S
C574        O580   1.270       .  A
C575       C2472   1.443       .  S
H576        O577   0.965       .  S
O577       Ni585   1.919       .  S
O577       Ni579   1.887       .  S
O577       Ni584   1.900       .  S
O578       Ni579   1.940       .  S
Ni579       O583   1.846       .  S
Ni579       O581   1.892       .  S
O580       Ni585   1.923       .  S
C582       C2205   1.426       .  S
C582        O583   1.254       .  A
O587       Ni593   1.883       .  S
O587        C608   1.256       .  A
O588       Ni611   1.897       .  S
O588        C597   1.264       .  A
O589       Ni593   1.882       .  S
O589       Ni611   1.878       .  S
O589       Ni605   1.948       .  S
O589        H612   0.966       .  S
C590       C2172   1.497       .  S
C590        O607   1.294       .  A
C590        O599   1.280       .  A
O591       Ni610   1.907       .  S
O591        C597   1.266       .  A
O592       Ni610   1.898       .  S
O592        C594   1.264       .  A
Ni593       O596   1.914       .  S
Ni593       O598   1.895       .  S
C594       C2193   1.499       .  S
C594        O604   1.282       .  A
O595       Ni611   1.943       .  S
O595        C601   1.287       .  A
O596        C601   1.281       .  A
C597       C2532   1.457       .  S
O598        C600   1.261       .  A
O599       Ni610   1.915       .  S
C600       C3516   1.483       .  S
C600        O606   1.269       .  A
C601       C2793   1.490       .  S
H602        O603   0.966       .  S
O603       Ni611   1.922       .  S
O603       Ni605   1.898       .  S
O603       Ni610   1.881       .  S
O604       Ni605   1.971       .  S
Ni605       O609   1.961       .  S
Ni605       O607   1.964       .  S
O606       Ni611   1.942       .  S
C608       C2181   1.496       .  S
C608        O609   1.276       .  A
N613        C617   1.359       .  A
N613        C614   1.344       .  A
N613       C2292   1.443       .  S
C614        C615   1.387       .  A
C614       C2169   1.495   1_565  S
C615        C616   1.401       .  A
C615       C3501   1.465   1_565  S
C616        C617   1.403       .  A
C616       C2157   1.512       .  S
C617       C2232   1.469       .  S
N618        C622   1.332       .  A
N618        C619   1.348       .  A
N618       C3480   1.447       .  S
C619        C620   1.409       .  A
C619       C2148   1.452       .  S
C620        C621   1.426       .  A
C620       C3045   1.546       .  S
C621        C622   1.396       .  A
C621       C2721   1.470       .  S
C622       C2184   1.486   1_455  S
O623       Ni629   1.900       .  S
O623        C644   1.266       .  A
O624       Ni647   1.920       .  S
O624        C633   1.262       .  A
O625       Ni629   1.909       .  S
O625       Ni647   1.916       .  S
O625       Ni641   1.929       .  S
O625        H648   0.966       .  S
C626       C2145   1.438       .  S
C626        O643   1.278       .  A
C626        O635   1.277       .  A
O627       Ni646   1.887       .  S
O627        C633   1.258       .  A
O628       Ni646   1.891       .  S
O628        C630   1.263       .  A
Ni629       O632   1.922       .  S
Ni629       O634   1.893       .  S
C630       C2124   1.501       .  S
C630        O640   1.272       .  A
O631       Ni647   1.858       .  S
O631        C637   1.255       .  A
O632        C637   1.268       .  A
C633       C2136   1.462       .  S
O634        C636   1.268       .  A
O635       Ni646   1.884       .  S
C636       C3189   1.479       .  S
C636        O642   1.281       .  A
C637       C2580   1.437       .  S
H638        O639   0.966       .  S
O639       Ni647   1.883       .  S
O639       Ni641   1.873       .  S
O639       Ni646   1.875       .  S
O640       Ni641   1.945       .  S
Ni641       O645   1.890       .  S
Ni641       O643   1.910       .  S
O642       Ni647   1.958       .  S
C644       C3732   1.446       .  S
C644        O645   1.264       .  A
N649        C653   1.362       .  A
N649        C650   1.360   1_545  A
N649       C2325   1.455       .  S
C650        C651   1.396   1_565  A
C650       C2109   1.485       .  S
C651        C652   1.398       .  A
C651       C2097   1.500   1_545  S
C652        C653   1.400       .  A
C652       C3489   1.491       .  S
C653       C2121   1.496       .  S
O654       Ni660   1.906       .  S
O654        C675   1.263       .  A
O655       Ni678   1.858       .  S
O655        C664   1.257       .  A
O656       Ni660   1.890       .  S
O656       Ni678   1.861       .  S
O656       Ni672   1.882       .  S
O656        H679   0.966       .  S
C657       C2085   1.460       .  S
C657        O674   1.260       .  A
C657        O666   1.277       .  A
O658       Ni677   1.932       .  S
O658        C664   1.279       .  A
O659       Ni677   1.908       .  S
O659        C661   1.272       .  A
Ni660       O663   1.906       .  S
Ni660       O665   1.911       .  S
C661       C2112   1.481       .  S
C661        O671   1.275       .  A
O662       Ni678   1.911       .  S
O662        C668   1.279       .  A
O663        C668   1.277       .  A
C664       C2076   1.454       .  S
O665        C667   1.264       .  A
O666       Ni677   1.950       .  S
C667       C3132   1.481       .  S
C667        O673   1.261       .  A
C668       C2061   1.449       .  S
H669        O670   0.967       .  S
O670       Ni678   1.913       .  S
O670       Ni672   1.879       .  S
O670       Ni677   1.896       .  S
O671       Ni672   1.941       .  S
Ni672       O676   1.878       .  S
Ni672       O674   1.854       .  S
O673       Ni678   1.906       .  S
C675       C2412   1.439       .  S
C675        O676   1.260       .  A
N680        C684   1.343   1_455  A
N680        C681   1.351       .  A
N680       C2049   1.435       .  S
C681        C682   1.386       .  A
C681       C2073   1.470       .  S
C682        C683   1.383   1_455  A
C682       C3117   1.471       .  S
C683        C684   1.376       .  A
C683       C2685   1.465       .  S
C684       C2244   1.469       .  S
N685        C689   1.350   1_554  A
N685        C686   1.344       .  A
N685       C3096   1.462       .  S
C686        C687   1.387       .  A
C686       C2037   1.441       .  S
C687        C688   1.393       .  A
C687       C3816   1.489       .  S
C688        C689   1.397   1_554  A
C688       C2340   1.493   1_554  S
C689       C2088   1.460       .  S
O690       Ni696   1.920       .  S
O690        C711   1.273       .  A
O691       Ni714   1.882       .  S
O691        C700   1.263       .  A
O692       Ni696   1.878       .  S
O692       Ni714   1.868       .  S
O692       Ni708   1.904       .  S
O692        H715   0.963       .  S
C693       C3957   1.474       .  S
C693        O710   1.281       .  A
C693        O702   1.278       .  A
O694       Ni713   1.897       .  S
O694        C700   1.261       .  A
O695       Ni713   1.902       .  S
O695        C697   1.262       .  A
Ni696       O699   1.926       .  S
Ni696       O701   1.911       .  S
C697       C3348   1.475       .  S
C697        O707   1.262       .  A
O698       Ni714   1.916       .  S
O698        C704   1.277       .  A
O699        C704   1.281       .  A
C700       C2040   1.451       .  S
O701        C703   1.269       .  A
O702       Ni713   1.916       .  S
C703       C2025   1.490       .  S
C703        O709   1.277       .  A
C704       C2016   1.482       .  S
H705        O706   0.966       .  S
O706       Ni714   1.920       .  S
O706       Ni708   1.871       .  S
O706       Ni713   1.895       .  S
O707       Ni708   1.915       .  S
Ni708       O712   1.851       .  S
Ni708       O710   1.932       .  S
O709       Ni714   1.944       .  S
C711       C2001   1.426       .  S
C711        O712   1.255       .  A
N716        C720   1.353       .  A
N716        C717   1.352   1_455  A
N716       C1977   1.478       .  S
C717        C718   1.438       .  A
C717       C1989   1.487       .  S
C718        C719   1.453   1_655  A
C718       C2700   1.559       .  S
C719        C720   1.414       .  A
C719       C3108   1.542       .  S
C720       C2013   1.473       .  S
O721       Ni727   1.932       .  S
O721        C742   1.272       .  A
O722       Ni745   1.902       .  S
O722        C731   1.259       .  A
O723       Ni727   1.914       .  S
O723       Ni745   1.905       .  S
O723       Ni739   1.914       .  S
O723        H746   0.966       .  S
C724       C1941   1.461       .  S
C724        O741   1.274       .  A
C724        O733   1.278       .  A
O725       Ni744   1.907       .  S
O725        C731   1.261       .  A
O726       Ni744   1.906       .  S
O726        C728   1.262       .  A
Ni727       O730   1.928       .  S
Ni727       O732   1.928       .  S
C728       C3900   1.468       .  S
C728        O738   1.264       .  A
O729       Ni745   1.901       .  S
O729        C735   1.273       .  A
O730        C735   1.277       .  A
C731       C2916   1.453       .  S
O732        C734   1.273       .  A
O733       Ni744   1.925       .  S
C734       C1992   1.500       .  S
C734        O740   1.267       .  A
C735       C1953   1.488       .  S
H736        O737   0.967       .  S
O737       Ni745   1.905       .  S
O737       Ni739   1.896       .  S
O737       Ni744   1.912       .  S
O738       Ni739   1.916       .  S
Ni739       O743   1.885       .  S
Ni739       O741   1.901       .  S
O740       Ni745   1.911       .  S
C742       C1965   1.475       .  S
C742        O743   1.262       .  A
N747        C751   1.346       .  A
N747        C748   1.335   1_556  A
N747       C2676   1.446   1_556  S
C748        C749   1.391       .  A
C748       C1956   1.478       .  S
C749        C750   1.404   1_554  A
C749       C3888   1.455       .  S
C750        C751   1.404       .  A
C750       C2304   1.529       .  S
C751       C2220   1.443       .  S
O752       Ni758   1.901       .  S
O752        C773   1.260       .  A
O753       Ni776   1.930       .  S
O753        C762   1.277       .  A
O754       Ni758   1.903       .  S
O754       Ni776   1.916       .  S
O754       Ni770   1.924       .  S
O754        H777   0.966       .  S
C755       C1905   1.494       .  S
C755        O772   1.274       .  A
C755        O764   1.270       .  A
O756       Ni775   1.927       .  S
O756        C762   1.273       .  A
O757       Ni775   1.908       .  S
O757        C759   1.270       .  A
Ni758       O761   1.903       .  S
Ni758       O763   1.896       .  S
C759       C1932   1.486       .  S
C759        O769   1.284       .  A
O760       Ni776   1.944       .  S
O760        C766   1.282       .  A
O761        C766   1.274       .  A
C762       C3288   1.482       .  S
O763        C765   1.264       .  A
O764       Ni775   1.919       .  S
C765       C4056   1.497       .  S
C765        O771   1.273       .  A
C766       C3672   1.475       .  S
H767        O768   0.966       .  S
O768       Ni776   1.916       .  S
O768       Ni770   1.930       .  S
O768       Ni775   1.906       .  S
O769       Ni770   1.969       .  S
Ni770       O774   1.957       .  S
Ni770       O772   1.941       .  S
O771       Ni776   1.935       .  S
C773       C1920   1.506       .  S
C773        O774   1.276       .  A
N778        C782   1.348   1_655  A
N778        C779   1.363       .  A
N778       C3405   1.467       .  S
C779        C780   1.428       .  A
C779       C1893   1.471       .  S
C780        C781   1.439   1_655  A
C780       C2736   1.572       .  S
C781        C782   1.407       .  A
C781       C3036   1.496       .  S
C782       C1929   1.503       .  S
N783        C787   1.352       .  A
N783        C784   1.351   1_565  A
N783       C3792   1.459       .  S
C784        C785   1.417       .  A
C784       C1917   1.495       .  S
C785        C786   1.479   1_545  A
C785       C3420   1.558       .  S
C786        C787   1.419       .  A
C786       C1881   1.558       .  S
C787       C2028   1.499       .  S
N788        C792   1.358   1_554  A
N788        C789   1.352       .  A
N788       C3021   1.454       .  S
C789        C790   1.404       .  A
C789       C1908   1.500       .  S
C790        C791   1.410   1_554  A
C790       C3804   1.482       .  S
C791        C792   1.396       .  A
C791       C2352   1.519       .  S
C792       C2133   1.471       .  S
N793        C797   1.350       .  A
N793        C794   1.347   1_565  A
N793       C3864   1.444       .  S
C794        C795   1.398       .  A
C794       C1869   1.485       .  S
C795        C796   1.409   1_545  A
C795       C3429   1.474       .  S
C796        C797   1.400       .  A
C796       C1860   1.513       .  S
C797       C1968   1.484       .  S
O798       Ni804   1.922       .  S
O798        C819   1.271       .  A
O799       Ni822   1.902       .  S
O799        C808   1.263       .  A
O800       Ni804   1.900       .  S
O800       Ni822   1.899       .  S
O800       Ni816   1.902       .  S
O800        H823   0.967       .  S
C801       C1872   1.477       .  S
C801        O818   1.286       .  A
C801        O810   1.275       .  A
O802       Ni821   1.918       .  S
O802        C808   1.269       .  A
O803       Ni821   1.902       .  S
O803        C805   1.265       .  A
Ni804       O807   1.941       .  S
Ni804       O809   1.893       .  S
C805       C1848   1.500       .  S
C805        O815   1.276       .  A
O806       Ni822   1.870       .  S
O806        C812   1.266       .  A
O807        C812   1.277       .  A
C808       C1896   1.479       .  S
O809        C811   1.264       .  A
O810       Ni821   1.895       .  S
C811       C3573   1.476       .  S
C811        O817   1.267       .  A
C812       C2961   1.447       .  S
H813        O814   0.965       .  S
O814       Ni822   1.894       .  S
O814       Ni816   1.899       .  S
O814       Ni821   1.882       .  S
O815       Ni816   1.945       .  S
Ni816       O820   1.925       .  S
Ni816       O818   1.943       .  S
O817       Ni822   1.929       .  S
C819       C4116   1.478       .  S
C819        O820   1.278       .  A
N824        C828   1.368       .  A
N824        C825   1.355       .  A
N824       C2709   1.458       .  S
C825        C826   1.402       .  A
C825       C2196   1.505   1_554  S
C826        C827   1.415       .  A
C826       C2316   1.491   1_554  S
C827        C828   1.409       .  A
C827       C3876   1.527       .  S
C828       C1845   1.487       .  S
N829        C833   1.349       .  A
N829        C830   1.356       .  A
N829       C1797   1.449       .  S
C830        C831   1.385       .  A
C830       C2004   1.439       .  S
C831        C832   1.373       .  A
C831       C1821   1.518       .  S
C832        C833   1.390       .  A
C832       C1833   1.439       .  S
C833       C1809   1.483       .  S
N834        C838   1.355       .  A
N834        C835   1.346       .  A
N834       C1752   1.465       .  S
C835        C836   1.409       .  A
C835       C1764   1.476       .  S
C836        C837   1.410       .  A
C836       C1785   1.500       .  S
C837        C838   1.415       .  A
C837       C1776   1.527       .  S
C838       C2064   1.465       .  S
N839        C843   1.335       .  A
N839        C840   1.350       .  A
N839       C1701   1.438       .  S
C840        C841   1.379       .  A
C840       C2208   1.435       .  S
C841        C842   1.388       .  A
C841       C1725   1.508       .  S
C842        C843   1.380       .  A
C842       C1737   1.435       .  S
C843       C1713   1.475       .  S
N844        C848   1.365       .  A
N844        C845   1.371       .  A
N844       C1653   1.470       .  S
C845        C846   1.420       .  A
C845       C1944   1.466       .  S
C846        C847   1.450       .  A
C846       C1677   1.615       .  S
C847        C848   1.444       .  A
C847       C1689   1.484       .  S
C848       C1665   1.570       .  S
C849        C851   1.538       .  S
C849        C853   1.529       .  S
C849        C852   1.569       .  S
C849       C1668   1.630       .  S
C850        C854   1.553       .  S
C850        C856   1.534       .  S
C850        C855   1.566       .  S
C850       C1641   1.639       .  S
C851        C859   1.369       .  A
C851        C854   1.430       .  A
C852        C863   1.387       .  A
C852        C855   1.428       .  A
C853        C867   1.372       .  A
C853        C856   1.428       .  A
C854        C857   1.380       .  A
C855        C861   1.389       .  A
C856        C864   1.366       .  A
C857        N858   1.351       .  A
C857        H870   1.080       .  S
N858        C859   1.351       .  A
N858       C1716   1.428       .  S
C859        H860   1.083       .  S
C861        N862   1.364       .  A
C861        H871   1.082       .  S
N862        C863   1.364       .  A
N862       C1617   1.460       .  S
C863        H869   1.082       .  S
C864        N865   1.340       .  A
C864        H866   1.081       .  S
N865        C867   1.336       .  A
N865       C1629   1.403       .  S
C867        H868   1.082       .  S
C872        C874   1.521   1_455  S
C872        C876   1.557       .  S
C872        C875   1.565       .  S
C872       C1884   1.618       .  S
C873        C877   1.563       .  S
C873        C879   1.589   1_655  S
C873        C878   1.588       .  S
C873       C1680   1.641       .  S
C874        C882   1.364       .  A
C874        C877   1.397       .  A
C875        C886   1.389       .  A
C875        C878   1.417   1_455  A
C876        C890   1.389       .  A
C876        C879   1.427       .  A
C877        C880   1.396       .  A
C878        C884   1.405       .  A
C879        C887   1.404       .  A
C880        N881   1.367       .  A
C880        H893   1.081       .  S
N881        C882   1.353       .  A
N881       C1857   1.450       .  S
C882        H883   1.081       .  S
C884        N885   1.380       .  A
C884        H894   1.081       .  S
N885        C886   1.370   1_655  A
N885       C1980   1.488   1_655  S
C886        H892   1.079       .  S
C887        N888   1.363       .  A
C887        H889   1.074       .  S
N888        C890   1.356       .  A
N888       C1824   1.458       .  S
C890        H891   1.082       .  S
C895        C897   1.541       .  S
C895        C899   1.558       .  S
C895        C898   1.537       .  S
C895       C2160   1.571   1_455  S
C896        C900   1.547       .  S
C896        C902   1.561       .  S
C896        C901   1.534       .  S
C896       C1773   1.576       .  S
C897        C905   1.379       .  A
C897        C900   1.399       .  A
C898        C909   1.379       .  A
C898        C901   1.401       .  A
C899        C913   1.393   1_455  A
C899        C902   1.431       .  A
C900        C903   1.395       .  A
C901        C907   1.377       .  A
C902        C910   1.394       .  A
C903        N904   1.367       .  A
C903        H916   1.081       .  S
N904        C905   1.356       .  A
N904       C2100   1.464       .  S
C905        H906   1.080       .  S
C907        N908   1.339       .  A
C907        H917   1.081       .  S
N908        C909   1.352       .  A
N908       C2052   1.422       .  S
C909        H915   1.082   1_455  S
C910        N911   1.355   1_455  A
C910        H912   1.083       .  S
N911        C913   1.353       .  A
N911       C1728   1.450       .  S
C913        H914   1.082       .  S
C918        C920   1.522       .  S
C918        C922   1.524       .  S
C918        C921   1.557       .  S
C918       C1812   1.545       .  S
C919        C923   1.544       .  S
C919        C925   1.552       .  S
C919        C924   1.543       .  S
C919       C1593   1.555       .  S
C920        C928   1.373       .  A
C920        C923   1.396       .  A
C921        C932   1.382       .  A
C921        C924   1.397       .  A
C922        C936   1.367       .  A
C922        C925   1.414       .  A
C923        C926   1.381       .  A
C924        C930   1.380       .  A
C925        C933   1.394       .  A
C926        N927   1.358       .  A
C926        H939   1.082       .  S
N927        C928   1.347       .  A
N927       C1608   1.426       .  S
C928        H929   1.083       .  S
C930        N931   1.363       .  A
C930        H940   1.080       .  S
N931        C932   1.361       .  A
N931       C1581   1.456       .  S
C932        H938   1.077       .  S
C933        N934   1.352       .  A
C933        H935   1.082       .  S
N934        C936   1.341       .  A
N934       C1761   1.426       .  S
C936        H937   1.083       .  S
N941        C945   1.355       .  A
N941        C942   1.347       .  A
N941       C3636   1.455       .  S
C942        C943   1.405       .  A
C942       C1557   1.488       .  S
C943        C944   1.403       .  A
C943       C2280   1.476       .  S
C944        C945   1.401       .  A
C944       C4029   1.521       .  S
C945       C1569   1.464       .  S
N946        C950   1.341       .  A
N946        C947   1.341       .  A
N946       C3252   1.444       .  S
C947        C948   1.392       .  A
C947       C1533   1.450       .  S
C948        C949   1.399       .  A
C948       C1605   1.505       .  S
C949        C950   1.396       .  A
C949       C3648   1.480       .  S
C950       C1545   1.470       .  S
N951        C955   1.355       .  A
N951        C952   1.371       .  A
N951       C4020   1.448       .  S
C952        C953   1.419       .  A
C952       C1512   1.516       .  S
C953        C954   1.382       .  A
C953       C2664   1.483       .  S
C954        C955   1.369       .  A
C954       C3264   1.491       .  S
C955       C1524   1.471       .  S
O956       Ni962   1.891       .  S
O956        C977   1.253       .  A
O957       Ni980   1.904       .  S
O957        C966   1.267       .  A
O958       Ni962   1.880       .  S
O958       Ni980   1.870       .  S
O958       Ni974   1.898       .  S
O958        H981   0.966       .  S
C959       C4065   1.470       .  S
C959        O976   1.267       .  A
C959        O968   1.277       .  A
O960       Ni979   1.905       .  S
O960        C966   1.267       .  A
O961       Ni979   1.905       .  S
O961        C963   1.270       .  A
Ni962       O965   1.913       .  S
Ni962       O967   1.866       .  S
C963       C3300   1.482       .  S
C963        O973   1.270       .  A
O964       Ni980   1.928       .  S
O964        C970   1.291       .  A
O965        C970   1.282       .  A
C966       C1521   1.473       .  S
O967        C969   1.253       .  A
O968       Ni979   1.927       .  S
C969       C1572   1.446       .  S
C969        O975   1.260       .  A
C970       C1548   1.458       .  S
H971        O972   0.966       .  S
O972       Ni980   1.940       .  S
O972       Ni974   1.896       .  S
O972       Ni979   1.897       .  S
O973       Ni974   1.915       .  S
Ni974       O978   1.911       .  S
Ni974       O976   1.884       .  S
O975       Ni980   1.910       .  S
C977       C3681   1.446       .  S
C977        O978   1.263       .  A
O982       Ni988   1.913       .  S
O982       C1003   1.270       .  A
O983      Ni1006   1.865       .  S
O983        C992   1.263       .  A
O984       Ni988   1.883       .  S
O984      Ni1006   1.875       .  S
O984      Ni1000   1.916       .  S
O984       H1007   0.966       .  S
C985       C1509   1.460       .  S
C985       O1002   1.281       .  A
C985        O994   1.291       .  A
O986      Ni1005   1.916       .  S
O986        C992   1.272       .  A
O987      Ni1005   1.909       .  S
O987        C989   1.263       .  A
Ni988       O991   1.948       .  S
Ni988       O993   1.937       .  S
C989       C1485   1.472       .  S
C989        O999   1.265       .  A
O990      Ni1006   1.876       .  S
O990        C996   1.255       .  A
O991        C996   1.277       .  A
C992       C1497   1.451       .  S
O993        C995   1.276       .  A
O994      Ni1005   1.955       .  S
C995       C2976   1.495       .  S
C995       O1001   1.271       .  A
C996       C3588   1.465       .  S
H997        O998   0.967       .  S
O998      Ni1006   1.897       .  S
O998      Ni1000   1.859       .  S
O998      Ni1005   1.870       .  S
O999      Ni1000   1.918       .  S
Ni1000     O1004   1.883       .  S
Ni1000     O1002   1.888       .  S
O1001     Ni1006   1.921       .  S
C1003      C4128   1.447       .  S
C1003      O1004   1.264       .  A
O1008     Ni1014   1.890       .  S
O1008      C1029   1.265       .  A
O1009     Ni1032   1.916       .  S
O1009      C1018   1.265       .  A
O1010     Ni1014   1.914       .  S
O1010     Ni1032   1.948       .  S
O1010     Ni1026   1.926       .  S
O1010      H1033   0.966       .  S
C1011      C3972   1.441       .  S
C1011      O1028   1.277       .  A
C1011      O1020   1.277       .  A
O1012     Ni1031   1.896       .  S
O1012      C1018   1.266       .  A
O1013     Ni1031   1.889       .  S
O1013      C1015   1.265       .  A
Ni1014     O1017   1.907       .  S
Ni1014     O1019   1.886       .  S
C1015      C1800   1.480       .  S
C1015      O1025   1.278       .  A
O1016     Ni1032   1.923       .  S
O1016      C1022   1.268       .  A
O1017      C1022   1.247       .  A
C1018      C1461   1.462       .  S
O1019      C1021   1.262       .  A
O1020     Ni1031   1.902       .  S
C1021      C1473   1.465       .  S
C1021      O1027   1.280       .  A
C1022      C1536   1.452       .  S
H1023      O1024   0.965       .  S
O1024     Ni1032   1.893       .  S
O1024     Ni1026   1.892       .  S
O1024     Ni1031   1.876       .  S
O1025     Ni1026   1.950       .  S
Ni1026     O1030   1.936       .  S
Ni1026     O1028   1.898       .  S
O1027     Ni1032   1.958       .  S
C1029      C3360   1.475       .  S
C1029      O1030   1.276       .  A
O1034     Ni1040   1.936       .  S
O1034      C1055   1.276       .  A
O1035     Ni1058   1.889       .  S
O1035      C1044   1.268       .  A
O1036     Ni1040   1.884       .  S
O1036     Ni1058   1.882       .  S
O1036     Ni1052   1.880       .  S
O1036      H1059   0.967       .  S
C1037      C2592   1.453       .  S
C1037      O1054   1.270       .  A
C1037      O1046   1.278       .  A
O1038     Ni1057   1.911       .  S
O1038      C1044   1.268       .  A
O1039     Ni1057   1.923       .  S
O1039      C1041   1.269       .  A
Ni1040     O1043   1.932       .  S
Ni1040     O1045   1.908       .  S
C1041      C3204   1.487       .  S
C1041      O1051   1.268       .  A
O1042     Ni1058   1.881       .  S
O1042      C1048   1.275       .  A
O1043      C1048   1.280       .  A
C1044      C3744   1.438       .  S
O1045      C1047   1.269       .  A
O1046     Ni1057   1.915       .  S
C1047      C1560   1.497       .  S
C1047      O1053   1.275       .  A
C1048      C1437   1.476       .  S
H1049      O1050   0.966       .  S
O1050     Ni1058   1.888       .  S
O1050     Ni1052   1.870       .  S
O1050     Ni1057   1.881       .  S
O1051     Ni1052   1.926       .  S
Ni1052     O1056   1.853       .  S
Ni1052     O1054   1.898       .  S
O1053     Ni1058   1.948       .  S
C1055      C1452   1.445       .  S
C1055      O1056   1.257       .  A
N1060      C1064   1.341       .  A
N1060      C1061   1.361       .  A
N1060      C3828   1.459       .  S
C1061      C1062   1.412       .  A
C1061      C1476   1.449       .  S
C1062      C1063   1.436       .  A
C1062      C3276   1.572       .  S
C1063      C1064   1.415       .  A
C1063      C2649   1.476       .  S
C1064      C1425   1.518       .  S
N1065      C1069   1.359       .  A
N1065      C1066   1.343       .  A
N1065      C1620   1.459       .  S
C1066      C1067   1.414       .  A
C1066      C1413   1.508       .  S
C1067      C1068   1.430       .  A
C1067      C2388   1.481       .  S
C1068      C1069   1.403       .  A
C1068      C3849   1.555       .  S
C1069      C1401   1.451       .  S
N1070      C1074   1.337       .  A
N1070      C1071   1.342       .  A
N1070      C2640   1.424       .  S
C1071      C1072   1.374       .  A
C1071      C1500   1.438       .  S
C1072      C1073   1.380       .  A
C1072      C3456   1.490       .  S
C1073      C1074   1.376       .  A
C1073      C1632   1.440       .  S
C1074      C1392   1.473       .  S
O1075     Ni1081   1.892       .  S
O1075      C1096   1.258       .  A
O1076     Ni1099   1.877       .  S
O1076      C1085   1.266       .  A
O1077     Ni1081   1.871       .  S
O1077     Ni1099   1.864       .  S
O1077     Ni1093   1.932       .  S
O1077      H1100   0.966       .  S
C1078      C1389   1.461       .  S
C1078      O1095   1.282       .  A
C1078      O1087   1.285       .  A
O1079     Ni1098   1.916       .  S
O1079      C1085   1.271       .  A
O1080     Ni1098   1.910       .  S
O1080      C1082   1.267       .  A
Ni1081     O1084   1.925       .  S
Ni1081     O1086   1.913       .  S
C1082      C1428   1.517       .  S
C1082      O1092   1.283       .  A
O1083     Ni1099   1.920       .  S
O1083      C1089   1.279       .  A
O1084      C1089   1.284       .  A
C1085      C2904   1.454       .  S
O1086      C1088   1.264       .  A
O1087     Ni1098   1.929       .  S
C1088      C1656   1.533       .  S
C1088      O1094   1.282       .  A
C1089      C3912   1.483       .  S
H1090      O1091   0.966       .  S
O1091     Ni1099   1.912       .  S
O1091     Ni1093   1.872       .  S
O1091     Ni1098   1.866       .  S
O1092     Ni1093   1.974       .  S
Ni1093     O1097   1.910       .  S
Ni1093     O1095   1.911       .  S
O1094     Ni1099   1.986       .  S
C1096      C1404   1.460       .  S
C1096      O1097   1.270       .  A
N1101      C1105   1.355       .  A
N1101      C1102   1.353       .  A
N1101      C3444   1.462       .  S
C1102      C1103   1.384       .  A
C1102      C1377   1.452       .  S
C1103      C1104   1.395       .  A
C1103      C2268   1.510       .  S
C1104      C1105   1.408       .  A
C1104      C4044   1.475       .  S
C1105      C1488   1.487       .  S
N1106      C1110   1.350       .  A
N1106      C1107   1.361       .  A
N1106      C2748   1.490       .  S
C1107      C1108   1.436       .  A
C1107      C1365   1.461       .  S
C1108      C1109   1.472       .  A
C1108      C1644   1.606       .  S
C1109      C1110   1.432       .  A
C1109      C3468   1.543       .  S
C1110      C1356   1.496       .  S
N1111      C1115   1.342       .  A
N1111      C1112   1.358       .  A
N1111      C2256   1.452       .  S
C1112      C1113   1.400       .  A
C1112      C1449   1.454       .  S
C1113      C1114   1.384       .  A
C1113      C3072   1.498       .  S
C1114      C1115   1.382       .  A
C1114      C2757   1.466       .  S
C1115      C1344   1.478       .  S
O1116     Ni1122   1.884       .  S
O1116      C1137   1.261       .  A
O1117     Ni1140   1.883       .  S
O1117      C1126   1.262       .  A
O1118     Ni1122   1.885       .  S
O1118     Ni1140   1.876       .  S
O1118     Ni1134   1.903       .  S
O1118      H1141   0.967       .  S
C1119      C1380   1.434       .  S
C1119      O1136   1.270       .  A
C1119      O1128   1.277       .  A
O1120     Ni1139   1.913       .  S
O1120      C1126   1.269       .  A
O1121     Ni1139   1.898       .  S
O1121      C1123   1.264       .  A
Ni1122     O1125   1.898       .  S
Ni1122     O1127   1.896       .  S
C1123      C1353   1.488       .  S
C1123      O1133   1.279       .  A
O1124     Ni1140   1.904       .  S
O1124      C1130   1.278       .  A
O1125      C1130   1.279       .  A
C1126      C3528   1.454       .  S
O1127      C1129   1.262       .  A
O1128     Ni1139   1.899       .  S
C1129      C2520   1.495       .  S
C1129      O1135   1.271       .  A
C1130      C2784   1.472       .  S
H1131      O1132   0.966       .  S
O1132     Ni1140   1.898       .  S
O1132     Ni1134   1.902       .  S
O1132     Ni1139   1.883       .  S
O1133     Ni1134   1.952       .  S
Ni1134     O1138   1.918       .  S
Ni1134     O1136   1.896       .  S
O1135     Ni1140   1.946       .  S
C1137      C1341   1.456       .  S
C1137      O1138   1.266       .  A
N1142      C1146   1.366       .  A
N1142      C1143   1.351       .  A
N1142      C3060   1.472       .  S
C1143      C1144   1.422       .  A
C1143      C1329   1.509       .  S
C1144      C1145   1.426       .  A
C1144      C1596   1.491       .  S
C1145      C1146   1.411       .  A
C1145      C3657   1.559       .  S
C1146      C1440   1.461       .  S
N1147      C1151   1.347       .  A
N1147      C1148   1.361       .  A
N1147      C2364   1.459       .  S
C1148      C1149   1.426       .  A
C1148      C1320   1.479       .  S
C1149      C1150   1.493       .  A
C1149      C2772   1.615       .  S
C1150      C1151   1.424       .  A
C1150      C3081   1.526       .  S
C1151      C1305   1.538       .  S
N1152      C1156   1.355       .  A
N1152      C1153   1.353       .  A
N1152      C1584   1.458       .  S
C1153      C1154   1.392       .  A
C1153      C1464   1.485       .  S
C1154      C1155   1.387       .  A
C1154      C3840   1.467       .  S
C1155      C1156   1.391       .  A
C1155      C2376   1.506       .  S
C1156      C1293   1.450       .  S
O1157     Ni1163   1.895       .  S
O1157      C1178   1.261       .  A
O1158     Ni1181   1.925       .  S
O1158      C1167   1.273       .  A
O1159     Ni1163   1.867       .  S
O1159     Ni1181   1.875       .  S
O1159     Ni1175   1.944       .  S
O1159      H1182   0.966       .  S
C1160      C2400   1.502       .  S
C1160      O1177   1.281       .  A
C1160      O1169   1.285       .  A
O1161     Ni1180   1.901       .  S
O1161      C1167   1.261       .  A
O1162     Ni1180   1.915       .  S
O1162      C1164   1.266       .  A
Ni1163     O1166   1.915       .  S
Ni1163     O1168   1.905       .  S
C1164      C1749   1.506       .  S
C1164      O1174   1.276       .  A
O1165     Ni1181   1.989       .  S
O1165      C1171   1.302       .  A
O1166      C1171   1.284       .  A
C1167      C3144   1.461       .  S
O1168      C1170   1.265       .  A
O1169     Ni1180   1.955       .  S
C1170      C1308   1.543       .  S
C1170      O1176   1.290       .  A
C1171      C1332   1.521       .  S
H1172      O1173   0.965       .  S
O1173     Ni1181   1.967       .  S
O1173     Ni1175   1.888       .  S
O1173     Ni1180   1.908       .  S
O1174     Ni1175   1.962       .  S
Ni1175     O1179   1.895       .  S
Ni1175     O1177   1.939       .  S
O1176     Ni1181   2.006       .  S
C1178      C1296   1.463       .  S
C1178      O1179   1.264       .  A
O1183     Ni1189   1.907       .  S
O1183      C1204   1.266       .  A
O1184     Ni1207   1.903       .  S
O1184      C1193   1.268       .  A
O1185     Ni1189   1.897       .  S
O1185     Ni1207   1.897       .  S
O1185     Ni1201   1.914       .  S
O1185      H1208   0.966       .  S
C1186      C2457   1.446       .  S
C1186      O1203   1.280       .  A
C1186      O1195   1.277       .  A
O1187     Ni1206   1.910       .  S
O1187      C1193   1.266       .  A
O1188     Ni1206   1.905       .  S
O1188      C1190   1.265       .  A
Ni1189     O1192   1.916       .  S
Ni1189     O1194   1.906       .  S
C1190      C2844   1.492       .  S
C1190      O1200   1.278       .  A
O1191     Ni1207   1.895       .  S
O1191      C1197   1.272       .  A
O1192      C1197   1.277       .  A
C1193      C1704   1.454       .  S
O1194      C1196   1.268       .  A
O1195     Ni1206   1.898       .  S
C1196      C1416   1.521       .  S
C1196      O1202   1.280       .  A
C1197      C1368   1.453       .  S
H1198      O1199   0.966       .  S
O1199     Ni1207   1.893       .  S
O1199     Ni1201   1.893       .  S
O1199     Ni1206   1.887       .  S
O1200     Ni1201   1.956       .  S
Ni1201     O1205   1.919       .  S
Ni1201     O1203   1.910       .  S
O1202     Ni1207   1.968       .  S
C1204      C1317   1.474       .  S
C1204      O1205   1.271       .  A
O1209     Ni1217   1.899       .  S
O1209      C1219   1.275       .  A
O1210     Ni1217   1.897   1_655  S
O1210      C1220   1.277       .  A
O1211     Ni1217   1.918       .  S
O1211      C1221   1.284       .  A
O1212     Ni1217   1.919   1_655  S
O1212      C1222   1.281       .  A
O1213     Ni1218   1.886   1_655  S
O1213      C1222   1.275       .  A
O1214     Ni1218   1.892       .  S
O1214      C1221   1.276       .  A
O1215     Ni1218   1.887   1_655  S
O1215      C1220   1.278       .  A
O1216     Ni1218   1.883       .  S
O1216      C1219   1.276       .  A
Ni1217    Ni1218   2.395       .  S
C1219      C3777   1.433       .  S
C1220      C3624   1.463       .  S
C1221      C3717   1.480       .  S
C1222      C3564   1.455       .  S
O1223     Ni1231   1.889   1_655  S
O1223      C1233   1.278       .  A
O1224     Ni1231   1.904       .  S
O1224      C1234   1.278       .  A
O1225     Ni1231   1.912   1_655  S
O1225      C1235   1.282       .  A
O1226     Ni1231   1.915       .  S
O1226      C1236   1.279       .  A
O1227     Ni1232   1.936       .  S
O1227      C1236   1.286       .  A
O1228     Ni1232   1.935       .  S
O1228      C1235   1.285   1_455  A
O1229     Ni1232   1.862       .  S
O1229      C1234   1.272       .  A
O1230     Ni1232   1.863       .  S
O1230      C1233   1.267   1_455  A
Ni1231    Ni1232   2.395       .  S
C1233      C1740   1.418       .  S
C1234      C1836   1.440       .  S
C1235      C1692   1.499       .  S
C1236      C1788   1.480       .  S
O1237     Ni1245   1.871       .  S
O1237      C1247   1.272       .  A
O1238     Ni1245   1.873   1_556  S
O1238      C1248   1.273       .  A
O1239     Ni1245   1.900   1_556  S
O1239      C1249   1.279       .  A
O1240     Ni1245   1.899       .  S
O1240      C1250   1.278       .  A
O1241     Ni1246   1.911   1_554  S
O1241      C1250   1.281       .  A
O1242     Ni1246   1.911       .  S
O1242      C1249   1.281       .  A
O1243     Ni1246   1.906       .  S
O1243      C1248   1.277       .  A
O1244     Ni1246   1.901   1_554  S
O1244      C1247   1.277       .  A
Ni1245    Ni1246   2.397   1_554  S
C1247      C2952   1.430       .  S
C1248      C2832   1.436       .  S
C1249      C2889   1.476       .  S
C1250      C3012   1.474       .  S
O1251     Ni1259   1.860       .  S
O1251      C1261   1.269       .  A
O1252     Ni1259   1.865   1_545  S
O1252      C1262   1.272       .  A
O1253     Ni1259   1.901   1_545  S
O1253      C1263   1.277       .  A
O1254     Ni1259   1.882       .  S
O1254      C1264   1.278       .  A
O1255     Ni1260   1.866   1_565  S
O1255      C1264   1.267       .  A
O1256     Ni1260   1.854       .  S
O1256      C1263   1.272       .  A
O1257     Ni1260   1.935       .  S
O1257      C1262   1.286       .  A
O1258     Ni1260   1.940   1_565  S
O1258      C1261   1.288       .  A
Ni1259    Ni1260   2.398   1_565  S
C1261      C2445   1.475       .  S
C1262      C2568   1.466       .  S
C1263      C2628   1.431       .  S
C1264      C2508   1.417       .  S
O1265     Ni1273   1.903   1_556  S
O1265      C1275   1.279       .  A
O1266     Ni1273   1.905       .  S
O1266      C1276   1.280       .  A
O1267     Ni1273   1.916   1_556  S
O1267      C1277   1.282       .  A
O1268     Ni1273   1.910       .  S
O1268      C1278   1.279       .  A
O1269     Ni1274   1.924       .  S
O1269      C1278   1.281       .  A
O1270     Ni1274   1.924   1_556  S
O1270      C1277   1.283       .  A
O1271     Ni1274   1.905       .  S
O1271      C1276   1.279       .  A
O1272     Ni1274   1.903   1_556  S
O1272      C1275   1.278       .  A
Ni1273    Ni1274   2.391       .  S
C1275      C3177   1.459       .  S
C1276      C3333   1.471       .  S
C1277      C3240   1.491       .  S
C1278      C3396   1.469       .  S
O1279     Ni1287   1.870   1_545  S
O1279      C1289   1.271       .  A
O1280     Ni1287   1.869       .  S
O1280      C1290   1.275       .  A
O1281     Ni1287   1.915       .  S
O1281      C1291   1.280       .  A
O1282     Ni1287   1.918   1_545  S
O1282      C1292   1.282       .  A
O1283     Ni1288   1.909   1_545  S
O1283      C1292   1.280       .  A
O1284     Ni1288   1.909       .  S
O1284      C1291   1.279       .  A
O1285     Ni1288   1.912       .  S
O1285      C1290   1.280       .  A
O1286     Ni1288   1.912   1_545  S
O1286      C1289   1.280       .  A
Ni1287    Ni1288   2.393       .  S
C1289      C4164   1.442       .  S
C1290      C4008   1.458       .  S
C1291      C3948   1.462       .  S
C1292      C4104   1.490       .  S
C1293      C1294   1.392       .  A
C1293      C1298   1.400       .  A
C1294      C1295   1.378       .  A
C1294      H1299   1.084       .  S
C1295      C1296   1.416       .  A
C1295      C1302   1.447       .  S
C1296      C1297   1.409       .  A
C1297      C1298   1.395       .  A
C1297      H1300   1.084       .  S
C1298      C1301   1.443       .  S
C1301      N1303   1.157       .  T
C1302      N1304   1.157       .  T
C1305      C1306   1.416       .  A
C1305      C1310   1.412       .  A
C1306      C1307   1.430       .  A
C1306      H1311   1.082       .  S
C1307      C1308   1.422       .  A
C1307      C1314   1.439       .  S
C1308      C1309   1.420       .  A
C1309      C1310   1.413       .  A
C1309      H1312   1.084       .  S
C1310      C1313   1.444       .  S
C1313      N1315   1.157       .  T
C1314      N1316   1.156       .  T
C1317      C1318   1.401       .  A
C1317      C1322   1.416       .  A
C1318      C1319   1.400       .  A
C1318      H1323   1.085       .  S
C1319      C1320   1.412       .  A
C1319      C1326   1.443       .  S
C1320      C1321   1.397       .  A
C1321      C1322   1.396       .  A
C1321      H1324   1.085       .  S
C1322      C1325   1.445       .  S
C1325      N1327   1.157       .  T
C1326      N1328   1.157       .  T
C1329      C1330   1.412       .  A
C1329      C1334   1.410       .  A
C1330      C1331   1.419       .  A
C1330      H1335   1.084       .  S
C1331      C1332   1.419       .  A
C1331      C1338   1.442       .  S
C1332      C1333   1.414       .  A
C1333      C1334   1.406       .  A
C1333      H1336   1.084       .  S
C1334      C1337   1.442       .  S
C1337      N1339   1.157       .  T
C1338      N1340   1.157       .  T
C1341      C1342   1.392       .  A
C1341      C1346   1.412       .  A
C1342      C1343   1.394       .  A
C1342      H1347   1.085       .  S
C1343      C1344   1.418       .  A
C1343      C1350   1.442       .  S
C1344      C1345   1.395       .  A
C1345      C1346   1.393       .  A
C1345      H1348   1.085       .  S
C1346      C1349   1.442       .  S
C1349      N1351   1.157       .  T
C1350      N1352   1.157       .  T
C1353      C1354   1.409       .  A
C1353      C1358   1.410       .  A
C1354      C1355   1.407       .  A
C1354      H1359   1.085       .  S
C1355      C1356   1.409       .  A
C1355      C1362   1.442       .  S
C1356      C1357   1.407       .  A
C1357      C1358   1.406       .  A
C1357      H1360   1.082       .  S
C1358      C1361   1.444       .  S
C1361      N1363   1.157       .  T
C1362      N1364   1.157       .  T
C1365      C1366   1.398       .  A
C1365      C1370   1.408       .  A
C1366      C1367   1.389       .  A
C1366      H1371   1.085       .  S
C1367      C1368   1.410       .  A
C1367      C1374   1.445       .  S
C1368      C1369   1.400       .  A
C1369      C1370   1.394       .  A
C1369      H1372   1.085       .  S
C1370      C1373   1.444       .  S
C1373      N1375   1.157       .  T
C1374      N1376   1.157       .  T
C1377      C1378   1.394       .  A
C1377      C1382   1.410       .  A
C1378      C1379   1.379       .  A
C1378      H1383   1.084       .  S
C1379      C1380   1.405       .  A
C1379      C1386   1.445       .  S
C1380      C1381   1.395       .  A
C1381      C1382   1.392       .  A
C1381      H1384   1.085       .  S
C1382      C1385   1.444       .  S
C1385      N1387   1.157       .  T
C1386      N1388   1.157       .  T
C1389      C1390   1.402       .  A
C1389      C1394   1.406       .  A
C1390      C1391   1.396       .  A
C1390      H1395   1.085       .  S
C1391      C1392   1.408       .  A
C1391      C1398   1.444       .  S
C1392      C1393   1.399       .  A
C1393      C1394   1.394       .  A
C1393      H1396   1.082       .  S
C1394      C1397   1.441       .  S
C1397      N1399   1.156       .  T
C1398      N1400   1.157       .  T
C1401      C1402   1.390       .  A
C1401      C1406   1.409       .  A
C1402      C1403   1.378       .  A
C1402      H1407   1.085       .  S
C1403      C1404   1.418       .  A
C1403      C1410   1.448       .  S
C1404      C1405   1.402       .  A
C1405      C1406   1.395       .  A
C1405      H1408   1.084       .  S
C1406      C1409   1.443       .  S
C1409      N1411   1.157       .  T
C1410      N1412   1.158       .  T
C1413      C1414   1.409       .  A
C1413      C1418   1.410       .  A
C1414      C1415   1.417       .  A
C1414      H1419   1.084       .  S
C1415      C1416   1.421       .  A
C1415      C1422   1.441       .  S
C1416      C1417   1.415       .  A
C1417      C1418   1.406       .  A
C1417      H1420   1.084       .  S
C1418      C1421   1.443       .  S
C1421      N1423   1.157       .  T
C1422      N1424   1.157       .  T
C1425      C1426   1.411       .  A
C1425      C1430   1.412       .  A
C1426      C1427   1.416       .  A
C1426      H1431   1.083       .  S
C1427      C1428   1.417       .  A
C1427      C1434   1.442       .  S
C1428      C1429   1.413       .  A
C1429      C1430   1.413       .  A
C1429      H1432   1.084       .  S
C1430      C1433   1.441       .  S
C1433      N1435   1.157       .  T
C1434      N1436   1.157       .  T
C1437      C1438   1.408       .  A
C1437      C1442   1.417       .  A
C1438      C1439   1.391       .  A
C1438      H1443   1.085       .  S
C1439      C1440   1.405       .  A
C1439      C1446   1.443       .  S
C1440      C1441   1.397       .  A
C1441      C1442   1.392       .  A
C1441      H1444   1.086       .  S
C1442      C1445   1.445       .  S
C1445      N1447   1.158       .  T
C1446      N1448   1.157       .  T
C1449      C1450   1.401       .  A
C1449      C1454   1.399       .  A
C1450      C1451   1.382       .  A
C1450      H1455   1.082       .  S
C1451      C1452   1.401       .  A
C1451      C1458   1.445       .  S
C1452      C1453   1.407       .  A
C1453      C1454   1.394       .  A
C1453      H1456   1.085       .  S
C1454      C1457   1.443       .  S
C1457      N1459   1.157       .  T
C1458      N1460   1.157       .  T
C1461      C1462   1.396       .  A
C1461      C1466   1.410       .  A
C1462      C1463   1.399       .  A
C1462      H1467   1.085       .  S
C1463      C1464   1.415       .  A
C1463      C1470   1.444       .  S
C1464      C1465   1.401       .  A
C1465      C1466   1.396       .  A
C1465      H1468   1.082       .  S
C1466      C1469   1.445       .  S
C1469      N1471   1.157       .  T
C1470      N1472   1.157       .  T
C1473      C1474   1.406       .  A
C1473      C1478   1.415       .  A
C1474      C1475   1.389       .  A
C1474      H1479   1.083       .  S
C1475      C1476   1.401       .  A
C1475      C1482   1.443       .  S
C1476      C1477   1.397       .  A
C1477      C1478   1.391       .  A
C1477      H1480   1.086       .  S
C1478      C1481   1.445       .  S
C1481      N1483   1.157       .  T
C1482      N1484   1.157       .  T
C1485      C1486   1.399       .  A
C1485      C1490   1.408       .  A
C1486      C1487   1.397       .  A
C1486      H1491   1.086       .  S
C1487      C1488   1.415       .  A
C1487      C1494   1.440       .  S
C1488      C1489   1.408       .  A
C1489      C1490   1.402       .  A
C1489      H1492   1.085       .  S
C1490      C1493   1.443       .  S
C1493      N1495   1.157       .  T
C1494      N1496   1.157       .  T
C1497      C1498   1.402       .  A
C1497      C1502   1.412       .  A
C1498      C1499   1.381       .  A
C1498      H1503   1.085       .  S
C1499      C1500   1.403       .  A
C1499      C1506   1.445       .  S
C1500      C1501   1.395       .  A
C1501      C1502   1.388       .  A
C1501      H1504   1.085       .  S
C1502      C1505   1.446       .  S
C1505      N1507   1.157       .  T
C1506      N1508   1.157       .  T
C1509      C1510   1.395       .  A
C1509      C1514   1.406       .  A
C1510      C1511   1.403       .  A
C1510      H1515   1.084       .  S
C1511      C1512   1.421       .  A
C1511      C1518   1.440       .  S
C1512      C1513   1.403       .  A
C1513      C1514   1.394       .  A
C1513      H1516   1.071       .  S
C1514      C1517   1.446       .  S
C1517      N1519   1.157       .  T
C1518      N1520   1.157       .  T
C1521      C1522   1.408       .  A
C1521      C1526   1.410       .  A
C1522      C1523   1.396       .  A
C1522      H1527   1.085       .  S
C1523      C1524   1.405       .  A
C1523      C1530   1.444       .  S
C1524      C1525   1.401       .  A
C1525      C1526   1.394       .  A
C1525      H1528   1.085       .  S
C1526      C1529   1.445       .  S
C1529      N1531   1.157       .  T
C1530      N1532   1.157       .  T
C1533      C1534   1.391       .  A
C1533      C1538   1.416       .  A
C1534      C1535   1.383       .  A
C1534      H1539   1.085       .  S
C1535      C1536   1.418       .  A
C1535      C1542   1.445       .  S
C1536      C1537   1.393       .  A
C1537      C1538   1.387       .  A
C1537      H1540   1.085       .  S
C1538      C1541   1.444       .  S
C1541      N1543   1.157       .  T
C1542      N1544   1.157       .  T
C1545      C1546   1.405       .  A
C1545      C1550   1.405       .  A
C1546      C1547   1.400       .  A
C1546      H1551   1.085       .  S
C1547      C1548   1.407       .  A
C1547      C1554   1.443       .  S
C1548      C1549   1.401       .  A
C1549      C1550   1.391       .  A
C1549      H1552   1.086       .  S
C1550      C1553   1.443       .  S
C1553      N1555   1.157       .  T
C1554      N1556   1.157       .  T
C1557      C1558   1.404       .  A
C1557      C1562   1.408       .  A
C1558      C1559   1.409       .  A
C1558      H1563   1.085       .  S
C1559      C1560   1.418       .  A
C1559      C1566   1.443       .  S
C1560      C1561   1.408       .  A
C1561      C1562   1.399       .  A
C1561      H1564   1.085       .  S
C1562      C1565   1.444       .  S
C1565      N1567   1.157       .  T
C1566      N1568   1.157       .  T
C1569      C1570   1.404       .  A
C1569      C1574   1.404       .  A
C1570      C1571   1.390       .  A
C1570      H1575   1.084       .  S
C1571      C1572   1.400       .  A
C1571      C1578   1.444       .  S
C1572      C1573   1.402       .  A
C1573      C1574   1.392       .  A
C1573      H1576   1.085       .  S
C1574      C1577   1.444       .  S
C1577      N1579   1.157       .  T
C1578      N1580   1.157       .  T
C1581      C1582   1.409       .  A
C1581      C1586   1.418       .  A
C1582      C1583   1.402       .  A
C1582      H1587   1.082       .  S
C1583      C1584   1.414       .  A
C1583      C1590   1.443       .  S
C1584      C1585   1.406       .  A
C1585      C1586   1.404       .  A
C1585      H1588   1.076       .  S
C1586      C1589   1.443       .  S
C1589      N1591   1.158       .  T
C1590      N1592   1.157       .  T
C1593      C1594   1.414       .  A
C1593      C1598   1.427       .  A
C1594      C1595   1.409       .  A
C1594      H1599   1.084       .  S
C1595      C1596   1.408       .  A
C1595      C1602   1.442       .  S
C1596      C1597   1.399       .  A
C1597      C1598   1.407       .  A
C1597      H1600   1.085       .  S
C1598      C1601   1.442       .  S
C1601      N1603   1.158       .  T
C1602      N1604   1.157       .  T
C1605      C1606   1.409       .  A
C1605      C1610   1.418       .  A
C1606      C1607   1.393       .  A
C1606      H1611   1.065       .  S
C1607      C1608   1.399       .  A
C1607      C1614   1.445       .  S
C1608      C1609   1.398       .  A
C1609      C1610   1.403       .  A
C1609      H1612   1.084       .  S
C1610      C1613   1.444       .  S
C1613      N1615   1.157       .  T
C1614      N1616   1.157       .  T
C1617      C1618   1.412       .  A
C1617      C1622   1.417       .  A
C1618      C1619   1.415       .  A
C1618      H1623   1.083       .  S
C1619      C1620   1.410       .  A
C1619      C1626   1.441       .  S
C1620      C1621   1.403       .  A
C1621      C1622   1.406       .  A
C1621      H1624   1.084       .  S
C1622      C1625   1.440       .  S
C1625      N1627   1.157       .  T
C1626      N1628   1.157       .  T
C1629      C1630   1.393       .  A
C1629      C1634   1.404       .  A
C1630      C1631   1.383       .  A
C1630      H1635   1.085       .  S
C1631      C1632   1.408       .  A
C1631      C1638   1.445       .  S
C1632      C1633   1.394       .  A
C1633      C1634   1.383       .  A
C1633      H1636   1.085       .  S
C1634      C1637   1.444       .  S
C1637      N1639   1.157       .  T
C1638      N1640   1.157       .  T
C1641      C1642   1.438       .  A
C1641      C1646   1.423       .  A
C1642      C1643   1.450       .  A
C1642      H1647   1.078       .  S
C1643      C1644   1.428       .  A
C1643      C1650   1.437       .  S
C1644      C1645   1.434       .  A
C1645      C1646   1.437       .  A
C1645      H1648   1.075       .  S
C1646      C1649   1.443       .  S
C1649      N1651   1.157       .  T
C1650      N1652   1.156       .  T
C1653      C1654   1.412       .  A
C1653      C1658   1.410       .  A
C1654      C1655   1.423       .  A
C1654      H1659   1.083       .  S
C1655      C1656   1.421       .  A
C1655      C1662   1.442       .  S
C1656      C1657   1.419       .  A
C1657      C1658   1.415       .  A
C1657      H1660   1.084       .  S
C1658      C1661   1.442       .  S
C1661      N1663   1.157       .  T
C1662      N1664   1.157       .  T
C1665      C1666   1.420       .  A
C1665      C1670   1.420       .  A
C1666      C1667   1.445       .  A
C1666      H1671   1.084       .  S
C1667      C1668   1.434       .  A
C1667      C1674   1.438       .  S
C1668      C1669   1.428       .  A
C1669      C1670   1.434       .  A
C1669      H1672   1.082       .  S
C1670      C1673   1.442       .  S
C1673      N1675   1.157       .  T
C1674      N1676   1.157       .  T
C1677      C1678   1.430       .  A
C1677      C1682   1.434       .  A
C1678      C1679   1.440       .  A
C1678      H1683   1.064       .  S
C1679      C1680   1.428       .  A
C1679      C1686   1.444       .  S
C1680      C1681   1.430       .  A
C1681      C1682   1.450       .  A
C1681      H1684   1.066       .  S
C1682      C1685   1.439       .  S
C1685      N1687   1.157       .  T
C1686      N1688   1.157       .  T
C1689      C1690   1.404       .  A
C1689      C1694   1.409       .  A
C1690      C1691   1.408       .  A
C1690      H1695   1.084       .  S
C1691      C1692   1.420       .  A
C1691      C1698   1.443       .  S
C1692      C1693   1.409       .  A
C1693      C1694   1.398       .  A
C1693      H1696   1.084       .  S
C1694      C1697   1.445       .  S
C1697      N1699   1.157       .  T
C1698      N1700   1.157       .  T
C1701      C1702   1.401       .  A
C1701      C1706   1.409       .  A
C1702      C1703   1.391       .  A
C1702      H1707   1.082       .  S
C1703      C1704   1.405       .  A
C1703      C1710   1.445       .  S
C1704      C1705   1.400       .  A
C1705      C1706   1.398       .  A
C1705      H1708   1.085       .  S
C1706      C1709   1.442       .  S
C1709      N1711   1.157       .  T
C1710      N1712   1.157       .  T
C1713      C1714   1.405       .  A
C1713      C1718   1.409       .  A
C1714      C1715   1.401       .  A
C1714      H1719   1.084       .  S
C1715      C1716   1.404       .  A
C1715      C1722   1.441       .  S
C1716      C1717   1.400       .  A
C1717      C1718   1.388       .  A
C1717      H1720   1.084       .  S
C1718      C1721   1.444       .  S
C1721      N1723   1.157       .  T
C1722      N1724   1.157       .  T
C1725      C1726   1.407       .  A
C1725      C1730   1.419       .  A
C1726      C1727   1.407       .  A
C1726      H1731   1.083       .  S
C1727      C1728   1.412       .  A
C1727      C1734   1.441       .  S
C1728      C1729   1.402       .  A
C1729      C1730   1.409       .  A
C1729      H1732   1.084       .  S
C1730      C1733   1.442       .  S
C1733      N1735   1.157       .  T
C1734      N1736   1.157       .  T
C1737      C1738   1.398       .  A
C1737      C1742   1.403       .  A
C1738      C1739   1.375       .  A
C1738      H1743   1.082       .  S
C1739      C1740   1.398       .  A
C1739      C1746   1.446       .  S
C1740      C1741   1.396       .  A
C1741      C1742   1.385       .  A
C1741      H1744   1.084   1_655  S
C1742      C1745   1.444       .  S
C1745      N1747   1.157       .  T
C1746      N1748   1.157       .  T
C1749      C1750   1.407       .  A
C1749      C1754   1.418       .  A
C1750      C1751   1.414       .  A
C1750      H1755   1.083       .  S
C1751      C1752   1.414       .  A
C1751      C1758   1.441       .  S
C1752      C1753   1.406       .  A
C1753      C1754   1.411       .  A
C1753      H1756   1.084       .  S
C1754      C1757   1.443       .  S
C1757      N1759   1.157       .  T
C1758      N1760   1.157       .  T
C1761      C1762   1.398       .  A
C1761      C1766   1.408       .  A
C1762      C1763   1.398       .  A
C1762      H1767   1.084       .  S
C1763      C1764   1.412       .  A
C1763      C1770   1.444       .  S
C1764      C1765   1.401       .  A
C1765      C1766   1.395       .  A
C1765      H1768   1.085       .  S
C1766      C1769   1.443       .  S
C1769      N1771   1.157       .  T
C1770      N1772   1.157       .  T
C1773      C1774   1.411       .  A
C1773      C1778   1.422       .  A
C1774      C1775   1.400       .  A
C1774      H1779   1.079       .  S
C1775      C1776   1.411       .  A
C1775      C1782   1.441       .  S
C1776      C1777   1.418       .  A
C1777      C1778   1.428       .  A
C1777      H1780   1.084       .  S
C1778      C1781   1.441       .  S
C1781      N1783   1.157       .  T
C1782      N1784   1.157       .  T
C1785      C1786   1.406       .  A
C1785      C1790   1.419       .  A
C1786      C1787   1.405       .  A
C1786      H1791   1.083       .  S
C1787      C1788   1.412       .  A
C1787      C1794   1.443       .  S
C1788      C1789   1.399       .  A
C1789      C1790   1.403       .  A
C1789      H1792   1.085       .  S
C1790      C1793   1.443       .  S
C1793      N1795   1.157       .  T
C1794      N1796   1.157       .  T
C1797      C1798   1.412       .  A
C1797      C1802   1.408       .  A
C1798      C1799   1.410       .  A
C1798      H1803   1.083       .  S
C1799      C1800   1.408       .  A
C1799      C1806   1.442       .  S
C1800      C1801   1.404       .  A
C1801      C1802   1.395       .  A
C1801      H1804   1.086       .  S
C1802      C1805   1.442       .  S
C1805      N1807   1.157       .  T
C1806      N1808   1.157       .  T
C1809      C1810   1.398       .  A
C1809      C1814   1.406       .  A
C1810      C1811   1.402       .  A
C1810      H1815   1.082       .  S
C1811      C1812   1.424       .  A
C1811      C1818   1.444       .  S
C1812      C1813   1.409       .  A
C1813      C1814   1.400       .  A
C1813      H1816   1.076       .  S
C1814      C1817   1.444       .  S
C1817      N1819   1.157       .  T
C1818      N1820   1.157       .  T
C1821      C1822   1.409       .  A
C1821      C1826   1.418       .  A
C1822      C1823   1.415       .  A
C1822      H1827   1.084       .  S
C1823      C1824   1.414       .  A
C1823      C1830   1.442       .  S
C1824      C1825   1.405       .  A
C1825      C1826   1.413       .  A
C1825      H1828   1.084       .  S
C1826      C1829   1.441       .  S
C1829      N1831   1.157       .  T
C1830      N1832   1.157       .  T
C1833      C1834   1.398       .  A
C1833      C1838   1.403       .  A
C1834      C1835   1.391       .  A
C1834      H1839   1.085       .  S
C1835      C1836   1.407       .  A
C1835      C1842   1.445       .  S
C1836      C1837   1.400       .  A
C1837      C1838   1.382       .  A
C1837      H1840   1.086       .  S
C1838      C1841   1.444       .  S
C1841      N1843   1.157       .  T
C1842      N1844   1.157       .  T
C1845      C1846   1.396       .  A
C1845      C1850   1.412       .  A
C1846      C1847   1.397       .  A
C1846      H1851   1.086       .  S
C1847      C1848   1.425       .  A
C1847      C1854   1.445       .  S
C1848      C1849   1.409       .  A
C1849      C1850   1.407       .  A
C1849      H1852   1.084       .  S
C1850      C1853   1.443       .  S
C1853      N1855   1.157       .  T
C1854      N1856   1.157       .  T
C1857      C1858   1.404       .  A
C1857      C1862   1.415       .  A
C1858      C1859   1.406       .  A
C1858      H1863   1.083       .  S
C1859      C1860   1.420       .  A
C1859      C1866   1.444       .  S
C1860      C1861   1.407       .  A
C1861      C1862   1.399       .  A
C1861      H1864   1.073       .  S
C1862      C1865   1.445       .  S
C1865      N1867   1.157       .  T
C1866      N1868   1.157       .  T
C1869      C1870   1.400       .  A
C1869      C1874   1.408       .  A
C1870      C1871   1.390       .  A
C1870      H1875   1.083       .  S
C1871      C1872   1.413       .  A
C1871      C1878   1.446       .  S
C1872      C1873   1.406       .  A
C1873      C1874   1.405       .  A
C1873      H1876   1.084       .  S
C1874      C1877   1.442       .  S
C1877      N1879   1.157       .  T
C1878      N1880   1.157       .  T
C1881      C1882   1.417       .  A
C1881      C1886   1.424       .  A
C1882      C1883   1.438       .  A
C1882      H1887   1.084       .  S
C1883      C1884   1.434       .  A
C1883      C1890   1.441   1_455  S
C1884      C1885   1.424       .  A
C1885      C1886   1.435       .  A
C1885      H1888   1.080       .  S
C1886      C1889   1.441       .  S
C1889      N1891   1.157       .  T
C1890      N1892   1.157       .  T
C1893      C1894   1.401       .  A
C1893      C1898   1.406       .  A
C1894      C1895   1.403       .  A
C1894      H1899   1.084       .  S
C1895      C1896   1.418       .  A
C1895      C1902   1.444       .  S
C1896      C1897   1.403       .  A
C1897      C1898   1.387       .  A
C1897      H1900   1.085       .  S
C1898      C1901   1.443       .  S
C1901      N1903   1.157       .  T
C1902      N1904   1.158       .  T
C1905      C1906   1.403       .  A
C1905      C1910   1.415       .  A
C1906      C1907   1.413       .  A
C1906      H1911   1.084       .  S
C1907      C1908   1.419       .  A
C1907      C1914   1.440       .  S
C1908      C1909   1.401       .  A
C1909      C1910   1.402       .  A
C1909      H1912   1.085       .  S
C1910      C1913   1.440       .  S
C1913      N1915   1.156       .  T
C1914      N1916   1.157       .  T
C1917      C1918   1.408       .  A
C1917      C1922   1.405       .  A
C1918      C1919   1.414       .  A
C1918      H1923   1.084       .  S
C1919      C1920   1.416       .  A
C1919      C1926   1.442       .  S
C1920      C1921   1.414       .  A
C1921      C1922   1.400       .  A
C1921      H1924   1.084       .  S
C1922      C1925   1.443       .  S
C1925      N1927   1.157       .  T
C1926      N1928   1.157       .  T
C1929      C1930   1.408       .  A
C1929      C1934   1.412       .  A
C1930      C1931   1.406       .  A
C1930      H1935   1.084       .  S
C1931      C1932   1.409       .  A
C1931      C1938   1.444       .  S
C1932      C1933   1.406       .  A
C1933      C1934   1.408       .  A
C1933      H1936   1.085       .  S
C1934      C1937   1.442       .  S
C1937      N1939   1.157       .  T
C1938      N1940   1.157       .  T
C1941      C1942   1.403       .  A
C1941      C1946   1.408       .  A
C1942      C1943   1.395       .  A
C1942      H1947   1.085       .  S
C1943      C1944   1.405       .  A
C1943      C1950   1.444       .  S
C1944      C1945   1.402       .  A
C1945      C1946   1.396       .  A
C1945      H1948   1.085       .  S
C1946      C1949   1.443       .  S
C1949      N1951   1.157       .  T
C1950      N1952   1.157       .  T
C1953      C1954   1.410       .  A
C1953      C1958   1.416       .  A
C1954      C1955   1.396       .  A
C1954      H1959   1.085       .  S
C1955      C1956   1.404       .  A
C1955      C1962   1.444       .  S
C1956      C1957   1.401       .  A
C1957      C1958   1.402       .  A
C1957      H1960   1.085       .  S
C1958      C1961   1.444       .  S
C1961      N1963   1.157       .  T
C1962      N1964   1.157       .  T
C1965      C1966   1.400       .  A
C1965      C1970   1.415       .  A
C1966      C1967   1.403       .  A
C1966      H1971   1.085       .  S
C1967      C1968   1.418       .  A
C1967      C1974   1.444       .  S
C1968      C1969   1.397       .  A
C1969      C1970   1.393       .  A
C1969      H1972   1.085       .  S
C1970      C1973   1.443       .  S
C1973      N1975   1.156       .  T
C1974      N1976   1.157       .  T
C1977      C1978   1.404       .  A
C1977      C1982   1.415   1_455  A
C1978      C1979   1.420       .  A
C1978      H1983   1.084       .  S
C1979      C1980   1.433       .  A
C1979      C1986   1.441       .  S
C1980      C1981   1.418   1_455  A
C1981      C1982   1.424       .  A
C1981      H1984   1.082       .  S
C1982      C1985   1.440       .  S
C1985      N1987   1.157       .  T
C1986      N1988   1.157       .  T
C1989      C1990   1.403       .  A
C1989      C1994   1.405       .  A
C1990      C1991   1.400       .  A
C1990      H1995   1.085       .  S
C1991      C1992   1.416       .  A
C1991      C1998   1.443       .  S
C1992      C1993   1.416       .  A
C1993      C1994   1.405       .  A
C1993      H1996   1.084       .  S
C1994      C1997   1.443       .  S
C1997      N1999   1.157       .  T
C1998      N2000   1.157       .  T
C2001      C2002   1.394       .  A
C2001      C2006   1.405       .  A
C2002      C2003   1.380       .  A
C2002      H2007   1.084       .  S
C2003      C2004   1.405       .  A
C2003      C2010   1.445       .  S
C2004      C2005   1.396       .  A
C2005      C2006   1.382       .  A
C2005      H2008   1.085       .  S
C2006      C2009   1.446       .  S
C2009      N2011   1.157       .  T
C2010      N2012   1.157       .  T
C2013      C2014   1.401       .  A
C2013      C2018   1.405       .  A
C2014      C2015   1.402       .  A
C2014      H2019   1.085       .  S
C2015      C2016   1.415       .  A
C2015      C2022   1.444       .  S
C2016      C2017   1.406       .  A
C2017      C2018   1.397       .  A
C2017      H2020   1.085       .  S
C2018      C2021   1.443       .  S
C2021      N2023   1.157       .  T
C2022      N2024   1.157       .  T
C2025      C2026   1.403       .  A
C2025      C2030   1.415       .  A
C2026      C2027   1.406       .  A
C2026      H2031   1.085       .  S
C2027      C2028   1.415       .  A
C2027      C2034   1.443       .  S
C2028      C2029   1.403       .  A
C2029      C2030   1.405       .  A
C2029      H2032   1.081       .  S
C2030      C2033   1.443       .  S
C2033      N2035   1.157       .  T
C2034      N2036   1.157       .  T
C2037      C2038   1.388       .  A
C2037      C2042   1.405       .  A
C2038      C2039   1.379       .  A
C2038      H2043   1.086       .  S
C2039      C2040   1.417       .  A
C2039      C2046   1.445       .  S
C2040      C2041   1.402       .  A
C2041      C2042   1.387       .  A
C2041      H2044   1.085       .  S
C2042      C2045   1.445       .  S
C2045      N2047   1.157       .  T
C2046      N2048   1.157       .  T
C2049      C2050   1.403       .  A
C2049      C2054   1.412       .  A
C2050      C2051   1.395       .  A
C2050      H2055   1.084       .  S
C2051      C2052   1.406       .  A
C2051      C2058   1.442       .  S
C2052      C2053   1.394       .  A
C2053      C2054   1.390       .  A
C2053      H2056   1.085       .  S
C2054      C2057   1.440       .  S
C2057      N2059   1.157       .  T
C2058      N2060   1.157       .  T
C2061      C2062   1.405       .  A
C2061      C2066   1.400       .  A
C2062      C2063   1.398       .  A
C2062      H2067   1.085       .  S
C2063      C2064   1.402       .  A
C2063      C2070   1.443       .  S
C2064      C2065   1.404       .  A
C2065      C2066   1.385       .  A
C2065      H2068   1.085       .  S
C2066      C2069   1.445       .  S
C2069      N2071   1.157       .  T
C2070      N2072   1.157       .  T
C2073      C2074   1.404       .  A
C2073      C2078   1.415       .  A
C2074      C2075   1.395       .  A
C2074      H2079   1.085       .  S
C2075      C2076   1.407       .  A
C2075      C2082   1.443       .  S
C2076      C2077   1.393       .  A
C2077      C2078   1.386       .  A
C2077      H2080   1.087       .  S
C2078      C2081   1.439       .  S
C2081      N2083   1.157       .  T
C2082      N2084   1.157       .  T
C2085      C2086   1.399       .  A
C2085      C2090   1.413       .  A
C2086      C2087   1.392       .  A
C2086      H2091   1.084       .  S
C2087      C2088   1.409       .  A
C2087      C2094   1.443       .  S
C2088      C2089   1.393       .  A
C2089      C2090   1.382       .  A
C2089      H2092   1.080       .  S
C2090      C2093   1.445       .  S
C2093      N2095   1.157       .  T
C2094      N2096   1.157       .  T
C2097      C2098   1.407       .  A
C2097      C2102   1.409       .  A
C2098      C2099   1.411       .  A
C2098      H2103   1.085       .  S
C2099      C2100   1.417       .  A
C2099      C2106   1.442       .  S
C2100      C2101   1.415       .  A
C2101      C2102   1.407       .  A
C2101      H2104   1.082       .  S
C2102      C2105   1.443       .  S
C2105      N2107   1.157   1_565  T
C2106      N2108   1.157       .  T
C2109      C2110   1.403       .  A
C2109      C2114   1.409       .  A
C2110      C2111   1.395       .  A
C2110      H2115   1.083       .  S
C2111      C2112   1.413       .  A
C2111      C2118   1.445       .  S
C2112      C2113   1.409       .  A
C2113      C2114   1.404       .  A
C2113      H2116   1.085       .  S
C2114      C2117   1.443       .  S
C2117      N2119   1.157       .  T
C2118      N2120   1.157       .  T
C2121      C2122   1.405       .  A
C2121      C2126   1.410       .  A
C2122      C2123   1.408       .  A
C2122      H2127   1.084       .  S
C2123      C2124   1.418       .  A
C2123      C2130   1.441       .  S
C2124      C2125   1.410       .  A
C2125      C2126   1.397       .  A
C2125      H2128   1.084       .  S
C2126      C2129   1.444       .  S
C2129      N2131   1.157       .  T
C2130      N2132   1.156       .  T
C2133      C2134   1.408       .  A
C2133      C2138   1.406       .  A
C2134      C2135   1.401       .  A
C2134      H2139   1.084       .  S
C2135      C2136   1.405       .  A
C2135      C2142   1.443       .  S
C2136      C2137   1.402       .  A
C2137      C2138   1.383       .  A
C2137      H2140   1.085       .  S
C2138      C2141   1.444       .  S
C2141      N2143   1.157       .  T
C2142      N2144   1.157       .  T
C2145      C2146   1.403       .  A
C2145      C2150   1.403       .  A
C2146      C2147   1.396       .  A
C2146      H2151   1.085       .  S
C2147      C2148   1.405       .  A
C2147      C2154   1.443       .  S
C2148      C2149   1.396       .  A
C2149      C2150   1.374       .  A
C2149      H2152   1.082       .  S
C2150      C2153   1.448       .  S
C2153      N2155   1.157       .  T
C2154      N2156   1.157       .  T
C2157      C2158   1.402       .  A
C2157      C2162   1.415       .  A
C2158      C2159   1.412       .  A
C2158      H2163   1.085       .  S
C2159      C2160   1.430       .  A
C2159      C2166   1.445   1_655  S
C2160      C2161   1.414       .  A
C2161      C2162   1.417       .  A
C2161      H2164   1.081       .  S
C2162      C2165   1.441       .  S
C2165      N2167   1.157       .  T
C2166      N2168   1.157       .  T
C2169      C2170   1.395       .  A
C2169      C2174   1.416       .  A
C2170      C2171   1.401       .  A
C2170      H2175   1.084       .  S
C2171      C2172   1.423       .  A
C2171      C2178   1.445       .  S
C2172      C2173   1.405       .  A
C2173      C2174   1.414       .  A
C2173      H2176   1.084       .  S
C2174      C2177   1.442       .  S
C2177      N2179   1.157   1_545  T
C2178      N2180   1.157       .  T
C2181      C2182   1.414       .  A
C2181      C2186   1.411       .  A
C2182      C2183   1.389       .  A
C2182      H2187   1.084       .  S
C2183      C2184   1.401       .  A
C2183      C2190   1.444       .  S
C2184      C2185   1.411       .  A
C2185      C2186   1.413       .  A
C2185      H2188   1.084       .  S
C2186      C2189   1.441       .  S
C2189      N2191   1.157       .  T
C2190      N2192   1.157       .  T
C2193      C2194   1.405       .  A
C2193      C2198   1.419       .  A
C2194      C2195   1.414       .  A
C2194      H2199   1.084       .  S
C2195      C2196   1.417       .  A
C2195      C2202   1.443       .  S
C2196      C2197   1.401       .  A
C2197      C2198   1.409       .  A
C2197      H2200   1.085       .  S
C2198      C2201   1.444       .  S
C2201      N2203   1.157       .  T
C2202      N2204   1.157   1_556  T
C2205      C2206   1.395       .  A
C2205      C2210   1.403       .  A
C2206      C2207   1.376       .  A
C2206      H2211   1.085       .  S
C2207      C2208   1.402       .  A
C2207      C2214   1.446       .  S
C2208      C2209   1.398       .  A
C2209      C2210   1.390       .  A
C2209      H2212   1.085       .  S
C2210      C2213   1.444       .  S
C2213      N2215   1.157       .  T
C2214      N2216   1.157       .  T
C2217      C2218   1.409       .  A
C2217      C2222   1.410       .  A
C2218      C2219   1.389       .  A
C2218      H2223   1.085       .  S
C2219      C2220   1.397       .  A
C2219      C2226   1.443       .  S
C2220      C2221   1.395       .  A
C2221      C2222   1.376       .  A
C2221      H2224   1.081       .  S
C2222      C2225   1.446       .  S
C2225      N2227   1.157       .  T
C2226      N2228   1.157       .  T
C2229      C2230   1.399       .  A
C2229      C2234   1.410       .  A
C2230      C2231   1.397       .  A
C2230      H2235   1.085       .  S
C2231      C2232   1.408       .  A
C2231      C2238   1.440       .  S
C2232      C2233   1.402       .  A
C2233      C2234   1.397       .  A
C2233      H2236   1.085       .  S
C2234      C2237   1.445       .  S
C2237      N2239   1.157       .  T
C2238      N2240   1.157       .  T
C2241      C2242   1.396       .  A
C2241      C2246   1.406       .  A
C2242      C2243   1.381       .  A
C2242      H2247   1.087       .  S
C2243      C2244   1.410       .  A
C2243      C2250   1.441       .  S
C2244      C2245   1.404       .  A
C2245      C2246   1.397       .  A
C2245      H2248   1.085       .  S
C2246      C2249   1.443       .  S
C2249      N2251   1.157       .  T
C2250      N2252   1.157       .  T
C2253      C2254   1.401       .  A
C2253      C2258   1.410       .  A
C2254      C2255   1.404       .  A
C2254      H2259   1.084       .  S
C2255      C2256   1.415       .  A
C2255      C2262   1.443       .  S
C2256      C2257   1.403       .  A
C2257      C2258   1.398       .  A
C2257      H2260   1.077       .  S
C2258      C2261   1.441       .  S
C2261      N2263   1.157       .  T
C2262      N2264   1.157       .  T
C2265      C2266   1.417       .  A
C2265      C2270   1.426       .  A
C2266      C2267   1.416       .  A
C2266      H2271   1.082       .  S
C2267      C2268   1.412       .  A
C2267      C2274   1.442       .  S
C2268      C2269   1.401       .  A
C2269      C2270   1.406       .  A
C2269      H2272   1.085       .  S
C2270      C2273   1.439       .  S
C2273      N2275   1.156       .  T
C2274      N2276   1.157       .  T
C2277      C2278   1.407       .  A
C2277      C2282   1.423       .  A
C2278      C2279   1.404       .  A
C2278      H2283   1.083       .  S
C2279      C2280   1.409       .  A
C2279      C2286   1.443       .  S
C2280      C2281   1.394       .  A
C2281      C2282   1.397       .  A
C2281      H2284   1.085       .  S
C2282      C2285   1.441       .  S
C2285      N2287   1.156       .  T
C2286      N2288   1.157       .  T
C2289      C2290   1.408       .  A
C2289      C2294   1.422       .  A
C2290      C2291   1.401       .  A
C2290      H2295   1.083       .  S
C2291      C2292   1.407       .  A
C2291      C2298   1.442       .  S
C2292      C2293   1.400       .  A
C2293      C2294   1.409       .  A
C2293      H2296   1.084       .  S
C2294      C2297   1.442       .  S
C2297      N2299   1.157       .  T
C2298      N2300   1.157       .  T
C2301      C2302   1.414       .  A
C2301      C2306   1.404       .  A
C2302      C2303   1.414       .  A
C2302      H2307   1.084       .  S
C2303      C2304   1.421       .  A
C2303      C2310   1.440       .  S
C2304      C2305   1.414       .  A
C2305      C2306   1.397       .  A
C2305      H2308   1.066       .  S
C2306      C2309   1.443       .  S
C2309      N2311   1.158       .  T
C2310      N2312   1.157       .  T
C2313      C2314   1.404       .  A
C2313      C2318   1.416       .  A
C2314      C2315   1.409       .  A
C2314      H2319   1.084       .  S
C2315      C2316   1.415       .  A
C2315      C2322   1.443       .  S
C2316      C2317   1.402       .  A
C2317      C2318   1.406       .  A
C2317      H2320   1.083       .  S
C2318      C2321   1.443       .  S
C2321      N2323   1.157       .  T
C2322      N2324   1.157       .  T
C2325      C2326   1.408       .  A
C2325      C2330   1.415       .  A
C2326      C2327   1.406       .  A
C2326      H2331   1.083   1_545  S
C2327      C2328   1.408       .  A
C2327      C2334   1.443   1_545  S
C2328      C2329   1.400       .  A
C2329      C2330   1.405       .  A
C2329      H2332   1.084       .  S
C2330      C2333   1.442       .  S
C2333      N2335   1.157       .  T
C2334      N2336   1.157       .  T
C2337      C2338   1.411       .  A
C2337      C2342   1.410       .  A
C2338      C2339   1.403       .  A
C2338      H2343   1.084       .  S
C2339      C2340   1.408       .  A
C2339      C2346   1.444       .  S
C2340      C2341   1.411       .  A
C2341      C2342   1.414       .  A
C2341      H2344   1.084       .  S
C2342      C2345   1.441       .  S
C2345      N2347   1.157       .  T
C2346      N2348   1.157       .  T
C2349      C2350   1.416       .  A
C2349      C2354   1.431       .  A
C2350      C2351   1.410       .  A
C2350      H2355   1.075       .  S
C2351      C2352   1.412       .  A
C2351      C2358   1.443       .  S
C2352      C2353   1.407       .  A
C2353      C2354   1.424       .  A
C2353      H2356   1.084       .  S
C2354      C2357   1.441       .  S
C2357      N2359   1.157       .  T
C2358      N2360   1.157       .  T
C2361      C2362   1.404       .  A
C2361      C2366   1.411       .  A
C2362      C2363   1.409       .  A
C2362      H2367   1.084       .  S
C2363      C2364   1.414       .  A
C2363      C2370   1.441       .  S
C2364      C2365   1.407       .  A
C2365      C2366   1.408       .  A
C2365      H2368   1.083       .  S
C2366      C2369   1.442       .  S
C2369      N2371   1.157       .  T
C2370      N2372   1.157       .  T
C2373      C2374   1.414       .  A
C2373      C2378   1.428       .  A
C2374      C2375   1.407       .  A
C2374      H2379   1.080       .  S
C2375      C2376   1.411       .  A
C2375      C2382   1.444       .  S
C2376      C2377   1.402       .  A
C2377      C2378   1.414       .  A
C2377      H2380   1.085       .  S
C2378      C2381   1.442       .  S
C2381      N2383   1.157       .  T
C2382      N2384   1.157       .  T
C2385      C2386   1.404       .  A
C2385      C2390   1.418       .  A
C2386      C2387   1.409       .  A
C2386      H2391   1.084       .  S
C2387      C2388   1.415       .  A
C2387      C2394   1.444       .  S
C2388      C2389   1.396       .  A
C2389      C2390   1.399       .  A
C2389      H2392   1.084       .  S
C2390      C2393   1.442       .  S
C2393      N2395   1.157       .  T
C2394      N2396   1.157       .  T
C2397      C2398   1.405       .  A
C2397      C2402   1.411       .  A
C2398      C2399   1.412       .  A
C2398      H2403   1.084       .  S
C2399      C2400   1.415       .  A
C2399      C2406   1.442       .  S
C2400      C2401   1.408       .  A
C2401      C2402   1.413       .  A
C2401      H2404   1.084       .  S
C2402      C2405   1.441       .  S
C2405      N2407   1.157       .  T
C2406      N2408   1.157       .  T
C2409      C2410   1.395       .  A
C2409      C2414   1.406       .  A
C2410      C2411   1.387       .  A
C2410      H2415   1.085       .  S
C2411      C2412   1.405       .  A
C2411      C2418   1.444       .  S
C2412      C2413   1.399       .  A
C2413      C2414   1.385       .  A
C2413      H2416   1.086       .  S
C2414      C2417   1.446       .  S
C2417      N2419   1.157       .  T
C2418      N2420   1.157       .  T
C2421      C2422   1.404       .  A
C2421      C2426   1.411       .  A
C2422      C2423   1.412       .  A
C2422      H2427   1.084       .  S
C2423      C2424   1.425       .  A
C2423      C2430   1.441       .  S
C2424      C2425   1.417       .  A
C2425      C2426   1.413       .  A
C2425      H2428   1.081       .  S
C2426      C2429   1.443       .  S
C2429      N2431   1.157       .  T
C2430      N2432   1.157       .  T
C2433      C2434   1.407       .  A
C2433      C2438   1.421       .  A
C2434      C2435   1.425       .  A
C2434      H2439   1.084       .  S
C2435      C2436   1.435       .  A
C2435      C2442   1.443   1_565  S
C2436      C2437   1.415       .  A
C2437      C2438   1.424       .  A
C2437      H2440   1.081       .  S
C2438      C2441   1.442       .  S
C2441      N2443   1.157       .  T
C2442      N2444   1.157       .  T
C2445      C2446   1.402       .  A
C2445      C2450   1.422       .  A
C2446      C2447   1.399       .  A
C2446      H2451   1.084       .  S
C2447      C2448   1.411       .  A
C2447      C2454   1.442       .  S
C2448      C2449   1.394       .  A
C2449      C2450   1.387       .  A
C2449      H2452   1.085       .  S
C2450      C2453   1.447       .  S
C2453      N2455   1.158       .  T
C2454      N2456   1.157       .  T
C2457      C2458   1.402       .  A
C2457      C2462   1.405       .  A
C2458      C2459   1.385       .  A
C2458      H2463   1.086       .  S
C2459      C2460   1.401       .  A
C2459      C2466   1.444       .  S
C2460      C2461   1.397       .  A
C2461      C2462   1.390       .  A
C2461      H2464   1.084       .  S
C2462      C2465   1.442       .  S
C2465      N2467   1.157       .  T
C2466      N2468   1.157       .  T
C2469      C2470   1.397       .  A
C2469      C2474   1.404       .  A
C2470      C2471   1.385       .  A
C2470      H2475   1.082       .  S
C2471      C2472   1.403       .  A
C2471      C2478   1.446       .  S
C2472      C2473   1.402       .  A
C2473      C2474   1.397       .  A
C2473      H2476   1.085       .  S
C2474      C2477   1.443       .  S
C2477      N2479   1.157       .  T
C2478      N2480   1.157       .  T
C2481      C2482   1.409       .  A
C2481      C2486   1.419       .  A
C2482      C2483   1.409       .  A
C2482      H2487   1.080       .  S
C2483      C2484   1.416       .  A
C2483      C2490   1.440       .  S
C2484      C2485   1.408       .  A
C2485      C2486   1.407       .  A
C2485      H2488   1.085       .  S
C2486      C2489   1.440       .  S
C2489      N2491   1.157       .  T
C2490      N2492   1.158       .  T
C2493      C2494   1.406       .  A
C2493      C2498   1.420       .  A
C2494      C2495   1.409       .  A
C2494      H2499   1.085       .  S
C2495      C2496   1.413       .  A
C2495      C2502   1.442       .  S
C2496      C2497   1.402       .  A
C2497      C2498   1.407       .  A
C2497      H2500   1.084       .  S
C2498      C2501   1.441       .  S
C2501      N2503   1.158       .  T
C2502      N2504   1.157       .  T
C2505      C2506   1.392       .  A
C2505      C2510   1.402       .  A
C2506      C2507   1.373       .  A
C2506      H2511   1.078       .  S
C2507      C2508   1.396       .  A
C2507      C2514   1.444       .  S
C2508      C2509   1.399       .  A
C2509      C2510   1.385       .  A
C2509      H2512   1.086       .  S
C2510      C2513   1.444       .  S
C2513      N2515   1.157       .  T
C2514      N2516   1.156       .  T
C2517      C2518   1.405       .  A
C2517      C2522   1.407       .  A
C2518      C2519   1.409       .  A
C2518      H2523   1.084       .  S
C2519      C2520   1.415       .  A
C2519      C2526   1.442       .  S
C2520      C2521   1.408       .  A
C2521      C2522   1.400       .  A
C2521      H2524   1.085       .  S
C2522      C2525   1.440       .  S
C2525      N2527   1.157       .  T
C2526      N2528   1.157       .  T
C2529      C2530   1.402       .  A
C2529      C2534   1.407       .  A
C2530      C2531   1.394       .  A
C2530      H2535   1.085       .  S
C2531      C2532   1.409       .  A
C2531      C2538   1.445       .  S
C2532      C2533   1.399       .  A
C2533      C2534   1.390       .  A
C2533      H2536   1.086       .  S
C2534      C2537   1.441       .  S
C2537      N2539   1.157       .  T
C2538      N2540   1.158       .  T
C2541      C2542   1.404       .  A
C2541      C2546   1.410       .  A
C2542      C2543   1.405       .  A
C2542      H2547   1.084       .  S
C2543      C2544   1.410       .  A
C2543      C2550   1.441       .  S
C2544      C2545   1.406       .  A
C2545      C2546   1.400       .  A
C2545      H2548   1.084       .  S
C2546      C2549   1.442       .  S
C2549      N2551   1.157       .  T
C2550      N2552   1.157       .  T
C2553      C2554   1.401       .  A
C2553      C2558   1.412       .  A
C2554      C2555   1.408       .  A
C2554      H2559   1.074       .  S
C2555      C2556   1.422       .  A
C2555      C2562   1.443       .  S
C2556      C2557   1.418       .  A
C2557      C2558   1.419       .  A
C2557      H2560   1.081       .  S
C2558      C2561   1.443       .  S
C2561      N2563   1.157       .  T
C2562      N2564   1.157       .  T
C2565      C2566   1.406       .  A
C2565      C2570   1.403       .  A
C2566      C2567   1.402       .  A
C2566      H2571   1.084       .  S
C2567      C2568   1.407       .  A
C2567      C2574   1.442       .  S
C2568      C2569   1.405       .  A
C2569      C2570   1.381       .  A
C2569      H2572   1.086       .  S
C2570      C2573   1.444       .  S
C2573      N2575   1.157       .  T
C2574      N2576   1.157       .  T
C2577      C2578   1.398       .  A
C2577      C2582   1.404       .  A
C2578      C2579   1.380       .  A
C2578      H2583   1.084       .  S
C2579      C2580   1.404       .  A
C2579      C2586   1.446       .  S
C2580      C2581   1.401       .  A
C2581      C2582   1.392       .  A
C2581      H2584   1.085       .  S
C2582      C2585   1.443       .  S
C2585      N2587   1.157       .  T
C2586      N2588   1.157       .  T
C2589      C2590   1.399       .  A
C2589      C2594   1.409       .  A
C2590      C2591   1.395       .  A
C2590      H2595   1.084       .  S
C2591      C2592   1.411       .  A
C2591      C2598   1.445       .  S
C2592      C2593   1.398       .  A
C2593      C2594   1.388       .  A
C2593      H2596   1.085       .  S
C2594      C2597   1.443       .  S
C2597      N2599   1.157       .  T
C2598      N2600   1.157       .  T
C2601      C2602   1.415       .  A
C2601      C2606   1.415       .  A
C2602      C2603   1.418       .  A
C2602      H2607   1.076       .  S
C2603      C2604   1.419       .  A
C2603      C2610   1.442       .  S
C2604      C2605   1.405       .  A
C2605      C2606   1.401       .  A
C2605      H2608   1.083       .  S
C2606      C2609   1.441       .  S
C2609      N2611   1.157       .  T
C2610      N2612   1.157       .  T
C2613      C2614   1.408       .  A
C2613      C2618   1.419       .  A
C2614      C2615   1.414       .  A
C2614      H2619   1.084       .  S
C2615      C2616   1.412       .  A
C2615      C2622   1.441       .  S
C2616      C2617   1.401       .  A
C2617      C2618   1.407       .  A
C2617      H2620   1.084       .  S
C2618      C2621   1.441       .  S
C2621      N2623   1.157       .  T
C2622      N2624   1.157       .  T
C2625      C2626   1.401       .  A
C2625      C2630   1.400       .  A
C2626      C2627   1.392       .  A
C2626      H2631   1.085       .  S
C2627      C2628   1.401       .  A
C2627      C2634   1.443       .  S
C2628      C2629   1.399       .  A
C2629      C2630   1.372       .  A
C2629      H2632   1.087       .  S
C2630      C2633   1.445       .  S
C2633      N2635   1.157       .  T
C2634      N2636   1.157       .  T
C2637      C2638   1.399       .  A
C2637      C2642   1.410       .  A
C2638      C2639   1.394       .  A
C2638      H2643   1.084       .  S
C2639      C2640   1.406       .  A
C2639      C2646   1.442       .  S
C2640      C2641   1.397       .  A
C2641      C2642   1.393       .  A
C2641      H2644   1.085       .  S
C2642      C2645   1.444       .  S
C2645      N2647   1.157       .  T
C2646      N2648   1.157       .  T
C2649      C2650   1.397       .  A
C2649      C2654   1.404       .  A
C2650      C2651   1.403       .  A
C2650      H2655   1.086       .  S
C2651      C2652   1.432       .  A
C2651      C2658   1.444       .  S
C2652      C2653   1.412       .  A
C2653      C2654   1.401       .  A
C2653      H2656   1.083       .  S
C2654      C2657   1.441       .  S
C2657      N2659   1.157       .  T
C2658      N2660   1.158       .  T
C2661      C2662   1.411       .  A
C2661      C2666   1.419       .  A
C2662      C2663   1.403       .  A
C2662      H2667   1.080       .  S
C2663      C2664   1.414       .  A
C2663      C2670   1.446       .  S
C2664      C2665   1.400       .  A
C2665      C2666   1.392       .  A
C2665      H2668   1.085       .  S
C2666      C2669   1.444       .  S
C2669      N2671   1.157       .  T
C2670      N2672   1.157       .  T
C2673      C2674   1.407       .  A
C2673      C2678   1.421   1_554  A
C2674      C2675   1.401       .  A
C2674      H2679   1.082       .  S
C2675      C2676   1.412       .  A
C2675      C2682   1.442       .  S
C2676      C2677   1.396   1_554  A
C2677      C2678   1.400       .  A
C2677      H2680   1.084       .  S
C2678      C2681   1.443   1_556  S
C2681      N2683   1.157       .  T
C2682      N2684   1.157       .  T
C2685      C2686   1.406       .  A
C2685      C2690   1.406       .  A
C2686      C2687   1.387       .  A
C2686      H2691   1.081       .  S
C2687      C2688   1.396       .  A
C2687      C2694   1.443       .  S
C2688      C2689   1.399       .  A
C2689      C2690   1.392       .  A
C2689      H2692   1.084       .  S
C2690      C2693   1.443       .  S
C2693      N2695   1.157   1_655  T
C2694      N2696   1.157       .  T
C2697      C2698   1.421       .  A
C2697      C2702   1.414       .  A
C2698      C2699   1.432       .  A
C2698      H2703   1.084       .  S
C2699      C2700   1.426       .  A
C2699      C2706   1.438       .  S
C2700      C2701   1.418       .  A
C2701      C2702   1.413       .  A
C2701      H2704   1.075       .  S
C2702      C2705   1.441       .  S
C2705      N2707   1.158       .  T
C2706      N2708   1.157   1_655  T
C2709      C2710   1.405       .  A
C2709      C2714   1.414       .  A
C2710      C2711   1.409       .  A
C2710      H2715   1.083       .  S
C2711      C2712   1.416       .  A
C2711      C2718   1.441       .  S
C2712      C2713   1.408       .  A
C2713      C2714   1.414       .  A
C2713      H2716   1.084       .  S
C2714      C2717   1.441       .  S
C2717      N2719   1.157       .  T
C2718      N2720   1.157   1_554  T
C2721      C2722   1.396   1_455  A
C2721      C2726   1.418   1_455  A
C2722      C2723   1.393       .  A
C2722      H2727   1.085   1_655  S
C2723      C2724   1.418       .  A
C2723      C2730   1.444       .  S
C2724      C2725   1.399       .  A
C2725      C2726   1.405       .  A
C2725      H2728   1.084       .  S
C2726      C2729   1.445   1_655  S
C2729      N2731   1.157       .  T
C2730      N2732   1.157       .  T
C2733      C2734   1.424       .  A
C2733      C2738   1.416       .  A
C2734      C2735   1.435       .  A
C2734      H2739   1.084       .  S
C2735      C2736   1.428       .  A
C2735      C2742   1.438       .  S
C2736      C2737   1.423       .  A
C2737      C2738   1.420       .  A
C2737      H2740   1.072       .  S
C2738      C2741   1.442       .  S
C2741      N2743   1.158       .  T
C2742      N2744   1.157   1_655  T
C2745      C2746   1.419       .  A
C2745      C2750   1.429       .  A
C2746      C2747   1.433       .  A
C2746      H2751   1.083       .  S
C2747      C2748   1.422       .  A
C2747      C2754   1.441       .  S
C2748      C2749   1.410       .  A
C2749      C2750   1.426       .  A
C2749      H2752   1.084       .  S
C2750      C2753   1.442       .  S
C2753      N2755   1.157       .  T
C2754      N2756   1.157       .  T
C2757      C2758   1.396       .  A
C2757      C2762   1.410       .  A
C2758      C2759   1.382       .  A
C2758      H2763   1.084       .  S
C2759      C2760   1.410       .  A
C2759      C2766   1.445       .  S
C2760      C2761   1.399       .  A
C2761      C2762   1.401       .  A
C2761      H2764   1.084       .  S
C2762      C2765   1.443       .  S
C2765      N2767   1.157       .  T
C2766      N2768   1.157       .  T
C2769      C2770   1.443       .  A
C2769      C2774   1.432       .  A
C2770      C2771   1.461       .  A
C2770      H2775   1.080       .  S
C2771      C2772   1.429       .  A
C2771      C2778   1.438       .  S
C2772      C2773   1.433       .  A
C2773      C2774   1.448       .  A
C2773      H2776   1.081       .  S
C2774      C2777   1.438       .  S
C2777      N2779   1.158       .  T
C2778      N2780   1.156       .  T
C2781      C2782   1.399       .  A
C2781      C2786   1.401       .  A
C2782      C2783   1.393       .  A
C2782      H2787   1.084       .  S
C2783      C2784   1.417       .  A
C2783      C2790   1.445       .  S
C2784      C2785   1.409       .  A
C2785      C2786   1.384       .  A
C2785      H2788   1.085       .  S
C2786      C2789   1.445       .  S
C2789      N2791   1.157       .  T
C2790      N2792   1.158       .  T
C2793      C2794   1.405       .  A
C2793      C2798   1.418       .  A
C2794      C2795   1.402       .  A
C2794      H2799   1.085       .  S
C2795      C2796   1.415       .  A
C2795      C2802   1.443       .  S
C2796      C2797   1.400       .  A
C2797      C2798   1.402       .  A
C2797      H2800   1.085       .  S
C2798      C2801   1.444       .  S
C2801      N2803   1.157       .  T
C2802      N2804   1.157       .  T
C2805      C2806   1.425       .  A
C2805      C2810   1.440       .  A
C2806      C2807   1.452       .  A
C2806      H2811   1.082       .  S
C2807      C2808   1.445       .  A
C2807      C2814   1.442       .  S
C2808      C2809   1.426       .  A
C2809      C2810   1.453       .  A
C2809      H2812   1.073       .  S
C2810      C2813   1.440       .  S
C2813      N2815   1.157       .  T
C2814      N2816   1.157       .  T
C2817      C2818   1.428       .  A
C2817      C2822   1.435       .  A
C2818      C2819   1.432       .  A
C2818      H2823   1.068       .  S
C2819      C2820   1.422       .  A
C2819      C2826   1.442       .  S
C2820      C2821   1.430       .  A
C2821      C2822   1.449       .  A
C2821      H2824   1.083       .  S
C2822      C2825   1.439       .  S
C2825      N2827   1.157       .  T
C2826      N2828   1.158       .  T
C2829      C2830   1.397       .  A
C2829      C2834   1.407       .  A
C2830      C2831   1.384       .  A
C2830      H2835   1.085       .  S
C2831      C2832   1.406       .  A
C2831      C2838   1.445       .  S
C2832      C2833   1.397       .  A
C2833      C2834   1.391       .  A
C2833      H2836   1.085       .  S
C2834      C2837   1.445       .  S
C2837      N2839   1.157       .  T
C2838      N2840   1.157       .  T
C2841      C2842   1.405       .  A
C2841      C2846   1.410       .  A
C2842      C2843   1.411       .  A
C2842      H2847   1.084       .  S
C2843      C2844   1.414       .  A
C2843      C2850   1.443       .  S
C2844      C2845   1.404       .  A
C2845      C2846   1.407       .  A
C2845      H2848   1.083       .  S
C2846      C2849   1.440       .  S
C2849      N2851   1.157       .  T
C2850      N2852   1.157       .  T
C2853      C2854   1.400       .  A
C2853      C2858   1.407       .  A
C2854      C2855   1.396       .  A
C2854      H2859   1.085       .  S
C2855      C2856   1.412       .  A
C2855      C2862   1.443       .  S
C2856      C2857   1.402       .  A
C2857      C2858   1.389       .  A
C2857      H2860   1.085       .  S
C2858      C2861   1.442       .  S
C2861      N2863   1.156       .  T
C2862      N2864   1.157       .  T
C2865      C2866   1.399       .  A
C2865      C2870   1.410       .  A
C2866      C2867   1.398       .  A
C2866      H2871   1.085       .  S
C2867      C2868   1.415       .  A
C2867      C2874   1.443       .  S
C2868      C2869   1.403       .  A
C2869      C2870   1.401       .  A
C2869      H2872   1.084       .  S
C2870      C2873   1.442       .  S
C2873      N2875   1.157       .  T
C2874      N2876   1.157       .  T
C2877      C2878   1.404       .  A
C2877      C2882   1.414       .  A
C2878      C2879   1.413       .  A
C2878      H2883   1.084       .  S
C2879      C2880   1.424       .  A
C2879      C2886   1.444       .  S
C2880      C2881   1.414       .  A
C2881      C2882   1.414       .  A
C2881      H2884   1.082       .  S
C2882      C2885   1.442       .  S
C2885      N2887   1.157       .  T
C2886      N2888   1.157       .  T
C2889      C2890   1.407       .  A
C2889      C2894   1.415       .  A
C2890      C2891   1.395       .  A
C2890      H2895   1.084       .  S
C2891      C2892   1.404       .  A
C2891      C2898   1.443       .  S
C2892      C2893   1.397       .  A
C2893      C2894   1.393       .  A
C2893      H2896   1.082       .  S
C2894      C2897   1.445       .  S
C2897      N2899   1.157       .  T
C2898      N2900   1.157       .  T
C2901      C2902   1.400       .  A
C2901      C2906   1.406       .  A
C2902      C2903   1.384       .  A
C2902      H2907   1.085       .  S
C2903      C2904   1.407       .  A
C2903      C2910   1.445       .  S
C2904      C2905   1.403       .  A
C2905      C2906   1.390       .  A
C2905      H2908   1.085       .  S
C2906      C2909   1.443       .  S
C2909      N2911   1.157       .  T
C2910      N2912   1.157       .  T
C2913      C2914   1.403       .  A
C2913      C2918   1.403       .  A
C2914      C2915   1.390       .  A
C2914      H2919   1.084       .  S
C2915      C2916   1.403       .  A
C2915      C2922   1.444       .  S
C2916      C2917   1.404       .  A
C2917      C2918   1.397       .  A
C2917      H2920   1.085       .  S
C2918      C2921   1.442       .  S
C2921      N2923   1.157       .  T
C2922      N2924   1.157       .  T
C2925      C2926   1.407       .  A
C2925      C2930   1.404       .  A
C2926      C2927   1.411       .  A
C2926      H2931   1.084       .  S
C2927      C2928   1.413       .  A
C2927      C2934   1.443       .  S
C2928      C2929   1.408       .  A
C2929      C2930   1.400       .  A
C2929      H2932   1.081       .  S
C2930      C2933   1.442       .  S
C2933      N2935   1.157       .  T
C2934      N2936   1.157       .  T
C2937      C2938   1.398       .  A
C2937      C2942   1.409       .  A
C2938      C2939   1.386       .  A
C2938      H2943   1.084       .  S
C2939      C2940   1.408       .  A
C2939      C2946   1.441       .  S
C2940      C2941   1.403       .  A
C2941      C2942   1.405       .  A
C2941      H2944   1.084       .  S
C2942      C2945   1.442       .  S
C2945      N2947   1.157       .  T
C2946      N2948   1.156       .  T
C2949      C2950   1.401       .  A
C2949      C2954   1.403       .  A
C2950      C2951   1.381       .  A
C2950      H2955   1.083       .  S
C2951      C2952   1.401       .  A
C2951      C2958   1.443       .  S
C2952      C2953   1.399       .  A
C2953      C2954   1.387       .  A
C2953      H2956   1.086       .  S
C2954      C2957   1.443       .  S
C2957      N2959   1.157       .  T
C2958      N2960   1.156       .  T
C2961      C2962   1.397       .  A
C2961      C2966   1.405       .  A
C2962      C2963   1.385       .  A
C2962      H2967   1.086       .  S
C2963      C2964   1.404       .  A
C2963      C2970   1.441       .  S
C2964      C2965   1.404       .  A
C2965      C2966   1.396       .  A
C2965      H2968   1.084       .  S
C2966      C2969   1.444       .  S
C2969      N2971   1.157       .  T
C2970      N2972   1.157       .  T
C2973      C2974   1.403       .  A
C2973      C2978   1.411       .  A
C2974      C2975   1.403       .  A
C2974      H2979   1.085       .  S
C2975      C2976   1.417       .  A
C2975      C2982   1.444       .  S
C2976      C2977   1.408       .  A
C2977      C2978   1.406       .  A
C2977      H2980   1.085       .  S
C2978      C2981   1.441       .  S
C2981      N2983   1.157       .  T
C2982      N2984   1.157       .  T
C2985      C2986   1.412       .  A
C2985      C2990   1.419       .  A
C2986      C2987   1.392       .  A
C2986      H2991   1.084       .  S
C2987      C2988   1.404       .  A
C2987      C2994   1.444       .  S
C2988      C2989   1.398       .  A
C2989      C2990   1.402       .  A
C2989      H2992   1.084       .  S
C2990      C2993   1.442       .  S
C2993      N2995   1.158       .  T
C2994      N2996   1.157       .  T
C2997      C2998   1.402       .  A
C2997      C3002   1.410       .  A
C2998      C2999   1.404       .  A
C2998      H3003   1.085       .  S
C2999      C3000   1.418       .  A
C2999      C3006   1.443       .  S
C3000      C3001   1.406       .  A
C3001      C3002   1.398       .  A
C3001      H3004   1.083       .  S
C3002      C3005   1.442       .  S
C3005      N3007   1.157       .  T
C3006      N3008   1.157       .  T
C3009      C3010   1.398       .  A
C3009      C3014   1.408       .  A
C3010      C3011   1.391       .  A
C3010      H3015   1.085       .  S
C3011      C3012   1.416       .  A
C3011      C3018   1.445       .  S
C3012      C3013   1.405       .  A
C3013      C3014   1.398       .  A
C3013      H3016   1.085       .  S
C3014      C3017   1.442       .  S
C3017      N3019   1.157       .  T
C3018      N3020   1.157       .  T
C3021      C3022   1.408       .  A
C3021      C3026   1.411       .  A
C3022      C3023   1.404       .  A
C3022      H3027   1.083       .  S
C3023      C3024   1.409       .  A
C3023      C3030   1.442       .  S
C3024      C3025   1.405       .  A
C3025      C3026   1.404       .  A
C3025      H3028   1.084       .  S
C3026      C3029   1.442       .  S
C3029      N3031   1.157       .  T
C3030      N3032   1.157       .  T
C3033      C3034   1.403       .  A
C3033      C3038   1.424       .  A
C3034      C3035   1.412       .  A
C3034      H3039   1.084       .  S
C3035      C3036   1.421       .  A
C3035      C3042   1.443       .  S
C3036      C3037   1.400       .  A
C3037      C3038   1.407       .  A
C3037      H3040   1.085       .  S
C3038      C3041   1.444       .  S
C3041      N3043   1.157       .  T
C3042      N3044   1.157       .  T
C3045      C3046   1.420       .  A
C3045      C3050   1.422       .  A
C3046      C3047   1.413       .  A
C3046      H3051   1.078       .  S
C3047      C3048   1.410       .  A
C3047      C3054   1.441       .  S
C3048      C3049   1.418       .  A
C3049      C3050   1.422       .  A
C3049      H3052   1.084       .  S
C3050      C3053   1.437       .  S
C3053      N3055   1.157       .  T
C3054      N3056   1.158       .  T
C3057      C3058   1.420       .  A
C3057      C3062   1.430       .  A
C3058      C3059   1.417       .  A
C3058      H3063   1.082       .  S
C3059      C3060   1.409       .  A
C3059      C3066   1.441       .  S
C3060      C3061   1.409       .  A
C3061      C3062   1.421       .  A
C3061      H3064   1.083       .  S
C3062      C3065   1.440       .  S
C3065      N3067   1.158       .  T
C3066      N3068   1.157       .  T
C3069      C3070   1.412       .  A
C3069      C3074   1.422       .  A
C3070      C3071   1.413       .  A
C3070      H3075   1.083       .  S
C3071      C3072   1.411       .  A
C3071      C3078   1.442       .  S
C3072      C3073   1.398       .  A
C3073      C3074   1.398       .  A
C3073      H3076   1.085       .  S
C3074      C3077   1.439       .  S
C3077      N3079   1.156       .  T
C3078      N3080   1.157       .  T
C3081      C3082   1.407       .  A
C3081      C3086   1.422       .  A
C3082      C3083   1.421       .  A
C3082      H3087   1.085       .  S
C3083      C3084   1.434       .  A
C3083      C3090   1.440       .  S
C3084      C3085   1.420       .  A
C3085      C3086   1.431       .  A
C3085      H3088   1.083       .  S
C3086      C3089   1.443       .  S
C3089      N3091   1.157       .  T
C3090      N3092   1.157       .  T
C3093      C3094   1.417   1_556  A
C3093      C3098   1.433       .  A
C3094      C3095   1.408       .  A
C3094      H3099   1.081       .  S
C3095      C3096   1.410       .  A
C3095      C3102   1.440       .  S
C3096      C3097   1.402   1_554  A
C3097      C3098   1.412       .  A
C3097      H3100   1.085       .  S
C3098      C3101   1.440       .  S
C3101      N3103   1.158       .  T
C3102      N3104   1.157       .  T
C3105      C3106   1.423       .  A
C3105      C3110   1.428       .  A
C3106      C3107   1.431       .  A
C3106      H3111   1.081       .  S
C3107      C3108   1.418       .  A
C3107      C3114   1.441       .  S
C3108      C3109   1.412       .  A
C3109      C3110   1.425       .  A
C3109      H3112   1.084       .  S
C3110      C3113   1.442       .  S
C3113      N3115   1.157       .  T
C3114      N3116   1.157       .  T
C3117      C3118   1.399       .  A
C3117      C3122   1.411       .  A
C3118      C3119   1.395       .  A
C3118      H3123   1.085       .  S
C3119      C3120   1.413       .  A
C3119      C3126   1.443       .  S
C3120      C3121   1.407       .  A
C3121      C3122   1.391       .  A
C3121      H3124   1.080       .  S
C3122      C3125   1.445       .  S
C3125      N3127   1.157   1_455  T
C3126      N3128   1.157       .  T
C3129      C3130   1.402       .  A
C3129      C3134   1.408       .  A
C3130      C3131   1.396       .  A
C3130      H3135   1.085       .  S
C3131      C3132   1.412       .  A
C3131      C3138   1.444       .  S
C3132      C3133   1.408       .  A
C3133      C3134   1.401       .  A
C3133      H3136   1.085       .  S
C3134      C3137   1.442       .  S
C3137      N3139   1.157       .  T
C3138      N3140   1.157       .  T
C3141      C3142   1.396       .  A
C3141      C3146   1.407       .  A
C3142      C3143   1.396       .  A
C3142      H3147   1.084       .  S
C3143      C3144   1.413       .  A
C3143      C3150   1.443       .  S
C3144      C3145   1.401       .  A
C3145      C3146   1.397       .  A
C3145      H3148   1.085       .  S
C3146      C3149   1.442       .  S
C3149      N3151   1.157       .  T
C3150      N3152   1.157       .  T
C3153      C3154   1.414       .  A
C3153      C3158   1.415       .  A
C3154      C3155   1.432       .  A
C3154      H3159   1.084       .  S
C3155      C3156   1.430       .  A
C3155      C3162   1.440       .  S
C3156      C3157   1.424       .  A
C3157      C3158   1.421       .  A
C3157      H3160   1.079       .  S
C3158      C3161   1.442       .  S
C3161      N3163   1.157       .  T
C3162      N3164   1.157       .  T
C3165      C3166   1.409       .  A
C3165      C3170   1.421       .  A
C3166      C3167   1.421       .  A
C3166      H3171   1.084       .  S
C3167      C3168   1.425       .  A
C3167      C3174   1.442       .  S
C3168      C3169   1.412       .  A
C3169      C3170   1.427       .  A
C3169      H3172   1.084       .  S
C3170      C3173   1.442       .  S
C3173      N3175   1.157       .  T
C3174      N3176   1.157       .  T
C3177      C3178   1.404       .  A
C3177      C3182   1.409       .  A
C3178      C3179   1.396       .  A
C3178      H3183   1.085       .  S
C3179      C3180   1.404       .  A
C3179      C3186   1.444       .  S
C3180      C3181   1.395       .  A
C3181      C3182   1.388       .  A
C3181      H3184   1.085       .  S
C3182      C3185   1.441       .  S
C3185      N3187   1.156       .  T
C3186      N3188   1.157       .  T
C3189      C3190   1.404       .  A
C3189      C3194   1.417       .  A
C3190      C3191   1.400       .  A
C3190      H3195   1.085       .  S
C3191      C3192   1.407       .  A
C3191      C3198   1.442       .  S
C3192      C3193   1.398       .  A
C3193      C3194   1.399       .  A
C3193      H3196   1.084       .  S
C3194      C3197   1.445       .  S
C3197      N3199   1.157       .  T
C3198      N3200   1.157       .  T
C3201      C3202   1.405       .  A
C3201      C3206   1.411       .  A
C3202      C3203   1.402       .  A
C3202      H3207   1.084       .  S
C3203      C3204   1.413       .  A
C3203      C3210   1.445       .  S
C3204      C3205   1.406       .  A
C3205      C3206   1.407       .  A
C3205      H3208   1.085       .  S
C3206      C3209   1.442       .  S
C3209      N3211   1.157       .  T
C3210      N3212   1.157       .  T
C3213      C3214   1.405       .  A
C3213      C3218   1.411       .  A
C3214      C3215   1.414       .  A
C3214      H3219   1.084       .  S
C3215      C3216   1.420       .  A
C3215      C3222   1.442       .  S
C3216      C3217   1.409       .  A
C3217      C3218   1.408       .  A
C3217      H3220   1.084       .  S
C3218      C3221   1.443       .  S
C3221      N3223   1.157       .  T
C3222      N3224   1.157       .  T
C3225      C3226   1.400       .  A
C3225      C3230   1.416       .  A
C3226      C3227   1.407       .  A
C3226      H3231   1.077       .  S
C3227      C3228   1.428       .  A
C3227      C3234   1.445       .  S
C3228      C3229   1.412       .  A
C3229      C3230   1.416       .  A
C3229      H3232   1.071       .  S
C3230      C3233   1.443       .  S
C3233      N3235   1.157       .  T
C3234      N3236   1.157       .  T
C3237      C3238   1.401       .  A
C3237      C3242   1.409       .  A
C3238      C3239   1.401       .  A
C3238      H3243   1.085       .  S
C3239      C3240   1.418       .  A
C3239      C3246   1.443       .  S
C3240      C3241   1.408       .  A
C3241      C3242   1.401       .  A
C3241      H3244   1.084       .  S
C3242      C3245   1.444       .  S
C3245      N3247   1.157       .  T
C3246      N3248   1.157       .  T
C3249      C3250   1.404       .  A
C3249      C3254   1.415       .  A
C3250      C3251   1.407       .  A
C3250      H3255   1.084       .  S
C3251      C3252   1.411       .  A
C3251      C3258   1.440       .  S
C3252      C3253   1.397       .  A
C3253      C3254   1.395       .  A
C3253      H3256   1.084       .  S
C3254      C3257   1.443       .  S
C3257      N3259   1.157       .  T
C3258      N3260   1.157       .  T
C3261      C3262   1.403       .  A
C3261      C3266   1.403       .  A
C3262      C3263   1.407       .  A
C3262      H3267   1.084       .  S
C3263      C3264   1.414       .  A
C3263      C3270   1.442       .  S
C3264      C3265   1.400       .  A
C3265      C3266   1.390       .  A
C3265      H3268   1.080       .  S
C3266      C3269   1.440       .  S
C3269      N3271   1.156       .  T
C3270      N3272   1.157       .  T
C3273      C3274   1.427       .  A
C3273      C3278   1.438       .  A
C3274      C3275   1.437       .  A
C3274      H3279   1.082       .  S
C3275      C3276   1.423       .  A
C3275      C3282   1.440       .  S
C3276      C3277   1.419       .  A
C3277      C3278   1.445       .  A
C3277      H3280   1.084       .  S
C3278      C3281   1.439       .  S
C3281      N3283   1.157       .  T
C3282      N3284   1.157       .  T
C3285      C3286   1.402       .  A
C3285      C3290   1.410       .  A
C3286      C3287   1.405       .  A
C3286      H3291   1.084       .  S
C3287      C3288   1.413       .  A
C3287      C3294   1.443       .  S
C3288      C3289   1.404       .  A
C3289      C3290   1.406       .  A
C3289      H3292   1.085       .  S
C3290      C3293   1.441       .  S
C3293      N3295   1.157       .  T
C3294      N3296   1.157       .  T
C3297      C3298   1.398       .  A
C3297      C3302   1.404       .  A
C3298      C3299   1.398       .  A
C3298      H3303   1.085       .  S
C3299      C3300   1.419       .  A
C3299      C3306   1.444       .  S
C3300      C3301   1.408       .  A
C3301      C3302   1.395       .  A
C3301      H3304   1.085       .  S
C3302      C3305   1.444       .  S
C3305      N3307   1.157       .  T
C3306      N3308   1.157       .  T
C3309      C3310   1.426       .  A
C3309      C3314   1.439       .  A
C3310      C3311   1.436       .  A
C3310      H3315   1.081       .  S
C3311      C3312   1.420       .  A
C3311      C3318   1.441       .  S
C3312      C3313   1.413       .  A
C3313      C3314   1.436       .  A
C3313      H3316   1.083       .  S
C3314      C3317   1.440       .  S
C3317      N3319   1.158       .  T
C3318      N3320   1.157       .  T
C3321      C3322   1.421       .  A
C3321      C3326   1.431       .  A
C3322      C3323   1.427       .  A
C3322      H3327   1.083       .  S
C3323      C3324   1.416       .  A
C3323      C3330   1.442       .  S
C3324      C3325   1.410       .  A
C3325      C3326   1.429       .  A
C3325      H3328   1.084       .  S
C3326      C3329   1.441       .  S
C3329      N3331   1.157       .  T
C3330      N3332   1.157       .  T
C3333      C3334   1.406       .  A
C3333      C3338   1.415       .  A
C3334      C3335   1.394       .  A
C3334      H3339   1.085       .  S
C3335      C3336   1.403       .  A
C3335      C3342   1.444       .  S
C3336      C3337   1.397       .  A
C3337      C3338   1.393       .  A
C3337      H3340   1.085       .  S
C3338      C3341   1.444       .  S
C3341      N3343   1.157       .  T
C3342      N3344   1.157       .  T
C3345      C3346   1.396       .  A
C3345      C3350   1.406       .  A
C3346      C3347   1.397       .  A
C3346      H3351   1.084       .  S
C3347      C3348   1.416       .  A
C3347      C3354   1.443       .  S
C3348      C3349   1.404       .  A
C3349      C3350   1.397       .  A
C3349      H3352   1.085       .  S
C3350      C3353   1.442       .  S
C3353      N3355   1.157       .  T
C3354      N3356   1.157       .  T
C3357      C3358   1.410       .  A
C3357      C3362   1.406       .  A
C3358      C3359   1.405       .  A
C3358      H3363   1.084       .  S
C3359      C3360   1.405       .  A
C3359      C3366   1.443       .  S
C3360      C3361   1.407       .  A
C3361      C3362   1.397       .  A
C3361      H3364   1.086       .  S
C3362      C3365   1.443       .  S
C3365      N3367   1.157       .  T
C3366      N3368   1.157       .  T
C3369      C3370   1.401       .  A
C3369      C3374   1.405       .  A
C3370      C3371   1.400       .  A
C3370      H3375   1.084       .  S
C3371      C3372   1.409       .  A
C3371      C3378   1.443       .  S
C3372      C3373   1.403       .  A
C3373      C3374   1.396       .  A
C3373      H3376   1.084       .  S
C3374      C3377   1.442       .  S
C3377      N3379   1.157       .  T
C3378      N3380   1.157       .  T
C3381      C3382   1.404       .  A
C3381      C3386   1.416       .  A
C3382      C3383   1.404       .  A
C3382      H3387   1.084       .  S
C3383      C3384   1.410       .  A
C3383      C3390   1.438       .  S
C3384      C3385   1.396       .  A
C3385      C3386   1.399       .  A
C3385      H3388   1.084       .  S
C3386      C3389   1.443       .  S
C3389      N3391   1.157       .  T
C3390      N3392   1.156       .  T
C3393      C3394   1.407       .  A
C3393      C3398   1.415       .  A
C3394      C3395   1.401       .  A
C3394      H3399   1.085       .  S
C3395      C3396   1.406       .  A
C3395      C3402   1.442       .  S
C3396      C3397   1.400       .  A
C3397      C3398   1.399       .  A
C3397      H3400   1.086       .  S
C3398      C3401   1.443       .  S
C3401      N3403   1.157       .  T
C3402      N3404   1.157       .  T
C3405      C3406   1.406       .  A
C3405      C3410   1.414   1_655  A
C3406      C3407   1.415       .  A
C3406      H3411   1.084       .  S
C3407      C3408   1.427       .  A
C3407      C3414   1.441       .  S
C3408      C3409   1.414   1_655  A
C3409      C3410   1.411       .  A
C3409      H3412   1.082       .  S
C3410      C3413   1.440       .  S
C3413      N3415   1.157       .  T
C3414      N3416   1.158       .  T
C3417      C3418   1.424       .  A
C3417      C3422   1.440       .  A
C3418      C3419   1.440       .  A
C3418      H3423   1.084       .  S
C3419      C3420   1.426       .  A
C3419      C3426   1.439       .  S
C3420      C3421   1.413       .  A
C3421      C3422   1.433       .  A
C3421      H3424   1.085       .  S
C3422      C3425   1.439       .  S
C3425      N3427   1.158   1_455  T
C3426      N3428   1.157       .  T
C3429      C3430   1.396       .  A
C3429      C3434   1.406       .  A
C3430      C3431   1.387       .  A
C3430      H3435   1.083       .  S
C3431      C3432   1.415       .  A
C3431      C3438   1.440       .  S
C3432      C3433   1.409       .  A
C3433      C3434   1.407       .  A
C3433      H3436   1.084       .  S
C3434      C3437   1.442       .  S
C3437      N3439   1.157       .  T
C3438      N3440   1.156       .  T
C3441      C3442   1.402       .  A
C3441      C3446   1.413       .  A
C3442      C3443   1.408       .  A
C3442      H3447   1.084       .  S
C3443      C3444   1.415       .  A
C3443      C3450   1.441       .  S
C3444      C3445   1.409       .  A
C3445      C3446   1.413       .  A
C3445      H3448   1.084       .  S
C3446      C3449   1.442       .  S
C3449      N3451   1.157       .  T
C3450      N3452   1.157       .  T
C3453      C3454   1.411       .  A
C3453      C3458   1.413       .  A
C3454      C3455   1.400       .  A
C3454      H3459   1.082       .  S
C3455      C3456   1.407       .  A
C3455      C3462   1.442       .  S
C3456      C3457   1.407       .  A
C3457      C3458   1.406       .  A
C3457      H3460   1.084       .  S
C3458      C3461   1.443       .  S
C3461      N3463   1.157       .  T
C3462      N3464   1.157       .  T
C3465      C3466   1.420       .  A
C3465      C3470   1.434       .  A
C3466      C3467   1.425       .  A
C3466      H3471   1.077       .  S
C3467      C3468   1.421       .  A
C3467      C3474   1.443       .  S
C3468      C3469   1.412       .  A
C3469      C3470   1.433       .  A
C3469      H3472   1.084       .  S
C3470      C3473   1.441       .  S
C3473      N3475   1.157       .  T
C3474      N3476   1.157       .  T
C3477      C3478   1.405       .  A
C3477      C3482   1.414       .  A
C3478      C3479   1.404       .  A
C3478      H3483   1.084       .  S
C3479      C3480   1.411       .  A
C3479      C3486   1.441       .  S
C3480      C3481   1.399       .  A
C3481      C3482   1.400       .  A
C3481      H3484   1.084       .  S
C3482      C3485   1.441       .  S
C3485      N3487   1.157       .  T
C3486      N3488   1.157       .  T
C3489      C3490   1.399       .  A
C3489      C3494   1.410       .  A
C3490      C3491   1.407       .  A
C3490      H3495   1.085       .  S
C3491      C3492   1.428       .  A
C3491      C3498   1.443       .  S
C3492      C3493   1.409       .  A
C3493      C3494   1.402       .  A
C3493      H3496   1.080       .  S
C3494      C3497   1.443       .  S
C3497      N3499   1.157       .  T
C3498      N3500   1.158       .  T
C3501      C3502   1.397       .  A
C3501      C3506   1.411       .  A
C3502      C3503   1.393       .  A
C3502      H3507   1.084       .  S
C3503      C3504   1.412       .  A
C3503      C3510   1.444       .  S
C3504      C3505   1.400       .  A
C3505      C3506   1.400       .  A
C3505      H3508   1.084       .  S
C3506      C3509   1.443       .  S
C3509      N3511   1.157   1_545  T
C3510      N3512   1.157   1_655  T
C3513      C3514   1.406       .  A
C3513      C3518   1.411       .  A
C3514      C3515   1.406       .  A
C3514      H3519   1.084       .  S
C3515      C3516   1.411       .  A
C3515      C3522   1.441       .  S
C3516      C3517   1.403       .  A
C3517      C3518   1.398       .  A
C3517      H3520   1.085       .  S
C3518      C3521   1.441       .  S
C3521      N3523   1.157       .  T
C3522      N3524   1.156       .  T
C3525      C3526   1.399       .  A
C3525      C3530   1.405       .  A
C3526      C3527   1.389       .  A
C3526      H3531   1.085       .  S
C3527      C3528   1.410       .  A
C3527      C3534   1.445       .  S
C3528      C3529   1.401       .  A
C3529      C3530   1.388       .  A
C3529      H3532   1.085       .  S
C3530      C3533   1.443       .  S
C3533      N3535   1.157       .  T
C3534      N3536   1.157       .  T
C3537      C3538   1.404       .  A
C3537      C3542   1.408       .  A
C3538      C3539   1.413       .  A
C3538      H3543   1.084       .  S
C3539      C3540   1.424       .  A
C3539      C3546   1.442       .  S
C3540      C3541   1.413       .  A
C3541      C3542   1.403       .  A
C3541      H3544   1.075       .  S
C3542      C3545   1.444       .  S
C3545      N3547   1.157       .  T
C3546      N3548   1.157       .  T
C3549      C3550   1.414       .  A
C3549      C3554   1.420       .  A
C3550      C3551   1.419       .  A
C3550      H3555   1.084       .  S
C3551      C3552   1.413       .  A
C3551      C3558   1.442       .  S
C3552      C3553   1.405       .  A
C3553      C3554   1.416       .  A
C3553      H3556   1.084       .  S
C3554      C3557   1.440       .  S
C3557      N3559   1.157       .  T
C3558      N3560   1.157       .  T
C3561      C3562   1.404       .  A
C3561      C3566   1.404       .  A
C3562      C3563   1.399       .  A
C3562      H3567   1.085       .  S
C3563      C3564   1.405       .  A
C3563      C3570   1.443       .  S
C3564      C3565   1.399       .  A
C3565      C3566   1.386       .  A
C3565      H3568   1.085       .  S
C3566      C3569   1.443       .  S
C3569      N3571   1.157       .  T
C3570      N3572   1.157       .  T
C3573      C3574   1.405       .  A
C3573      C3578   1.417       .  A
C3574      C3575   1.391       .  A
C3574      H3579   1.085       .  S
C3575      C3576   1.406       .  A
C3575      C3582   1.445       .  S
C3576      C3577   1.397       .  A
C3577      C3578   1.398       .  A
C3577      H3580   1.085       .  S
C3578      C3581   1.443       .  S
C3581      N3583   1.157       .  T
C3582      N3584   1.157       .  T
C3585      C3586   1.404       .  A
C3585      C3590   1.408       .  A
C3586      C3587   1.404       .  A
C3586      H3591   1.084       .  S
C3587      C3588   1.411       .  A
C3587      C3594   1.444       .  S
C3588      C3589   1.402       .  A
C3589      C3590   1.390       .  A
C3589      H3592   1.086       .  S
C3590      C3593   1.442       .  S
C3593      N3595   1.157       .  T
C3594      N3596   1.157       .  T
C3597      C3598   1.424       .  A
C3597      C3602   1.425       .  A
C3598      C3599   1.421       .  A
C3598      H3603   1.074       .  S
C3599      C3600   1.420       .  A
C3599      C3606   1.444       .  S
C3600      C3601   1.421       .  A
C3601      C3602   1.426       .  A
C3601      H3604   1.074       .  S
C3602      C3605   1.438       .  S
C3605      N3607   1.157       .  T
C3606      N3608   1.157       .  T
C3609      C3610   1.419       .  A
C3609      C3614   1.432       .  A
C3610      C3611   1.419       .  A
C3610      H3615   1.076       .  S
C3611      C3612   1.417       .  A
C3611      C3618   1.440       .  S
C3612      C3613   1.417       .  A
C3613      C3614   1.438       .  A
C3613      H3616   1.084       .  S
C3614      C3617   1.441       .  S
C3617      N3619   1.157       .  T
C3618      N3620   1.157       .  T
C3621      C3622   1.398       .  A
C3621      C3626   1.407       .  A
C3622      C3623   1.392       .  A
C3622      H3627   1.085       .  S
C3623      C3624   1.414       .  A
C3623      C3630   1.444       .  S
C3624      C3625   1.401       .  A
C3625      C3626   1.383       .  A
C3625      H3628   1.085       .  S
C3626      C3629   1.442       .  S
C3629      N3631   1.157       .  T
C3630      N3632   1.157       .  T
C3633      C3634   1.413       .  A
C3633      C3638   1.424       .  A
C3634      C3635   1.408       .  A
C3634      H3639   1.082       .  S
C3635      C3636   1.407       .  A
C3635      C3642   1.442       .  S
C3636      C3637   1.403       .  A
C3637      C3638   1.411       .  A
C3637      H3640   1.084       .  S
C3638      C3641   1.442       .  S
C3641      N3643   1.158       .  T
C3642      N3644   1.157       .  T
C3645      C3646   1.401       .  A
C3645      C3650   1.419       .  A
C3646      C3647   1.388       .  A
C3646      H3651   1.083       .  S
C3647      C3648   1.415       .  A
C3647      C3654   1.442       .  S
C3648      C3649   1.402       .  A
C3649      C3650   1.397       .  A
C3649      H3652   1.085       .  S
C3650      C3653   1.441       .  S
C3653      N3655   1.158       .  T
C3654      N3656   1.157       .  T
C3657      C3658   1.414       .  A
C3657      C3662   1.424       .  A
C3658      C3659   1.436       .  A
C3658      H3663   1.084       .  S
C3659      C3660   1.435       .  A
C3659      C3666   1.442       .  S
C3660      C3661   1.420       .  A
C3661      C3662   1.432       .  A
C3661      H3664   1.079       .  S
C3662      C3665   1.442       .  S
C3665      N3667   1.157       .  T
C3666      N3668   1.157       .  T
C3669      C3670   1.398       .  A
C3669      C3674   1.412       .  A
C3670      C3671   1.393       .  A
C3670      H3675   1.082       .  S
C3671      C3672   1.411       .  A
C3671      C3678   1.445       .  S
C3672      C3673   1.404       .  A
C3673      C3674   1.409       .  A
C3673      H3676   1.084       .  S
C3674      C3677   1.442       .  S
C3677      N3679   1.157       .  T
C3678      N3680   1.157       .  T
C3681      C3682   1.401       .  A
C3681      C3686   1.407       .  A
C3682      C3683   1.394       .  A
C3682      H3687   1.085       .  S
C3683      C3684   1.405       .  A
C3683      C3690   1.441       .  S
C3684      C3685   1.400       .  A
C3685      C3686   1.388       .  A
C3685      H3688   1.085       .  S
C3686      C3689   1.446       .  S
C3689      N3691   1.157       .  T
C3690      N3692   1.157       .  T
C3693      C3694   1.419       .  A
C3693      C3698   1.426       .  A
C3694      C3695   1.431       .  A
C3694      H3699   1.078       .  S
C3695      C3696   1.426       .  A
C3695      C3702   1.439       .  S
C3696      C3697   1.417       .  A
C3697      C3698   1.424       .  A
C3697      H3700   1.082       .  S
C3698      C3701   1.443       .  S
C3701      N3703   1.157       .  T
C3702      N3704   1.157       .  T
C3705      C3706   1.406       .  A
C3705      C3710   1.420       .  A
C3706      C3707   1.416       .  A
C3706      H3711   1.084       .  S
C3707      C3708   1.421       .  A
C3707      C3714   1.442       .  S
C3708      C3709   1.404       .  A
C3709      C3710   1.410       .  A
C3709      H3712   1.084       .  S
C3710      C3713   1.443       .  S
C3713      N3715   1.157       .  T
C3714      N3716   1.157       .  T
C3717      C3718   1.411       .  A
C3717      C3722   1.414       .  A
C3718      C3719   1.398       .  A
C3718      H3723   1.084       .  S
C3719      C3720   1.403       .  A
C3719      C3726   1.444       .  S
C3720      C3721   1.399       .  A
C3721      C3722   1.392       .  A
C3721      H3724   1.079       .  S
C3722      C3725   1.445       .  S
C3725      N3727   1.157       .  T
C3726      N3728   1.157       .  T
C3729      C3730   1.397       .  A
C3729      C3734   1.405       .  A
C3730      C3731   1.386       .  A
C3730      H3735   1.082       .  S
C3731      C3732   1.406       .  A
C3731      C3738   1.445       .  S
C3732      C3733   1.400       .  A
C3733      C3734   1.395       .  A
C3733      H3736   1.085       .  S
C3734      C3737   1.442       .  S
C3737      N3739   1.157       .  T
C3738      N3740   1.157       .  T
C3741      C3742   1.397       .  A
C3741      C3746   1.411       .  A
C3742      C3743   1.394       .  A
C3742      H3747   1.084       .  S
C3743      C3744   1.407       .  A
C3743      C3750   1.444       .  S
C3744      C3745   1.392       .  A
C3745      C3746   1.383       .  A
C3745      H3748   1.086       .  S
C3746      C3749   1.446       .  S
C3749      N3751   1.157       .  T
C3750      N3752   1.157       .  T
C3753      C3754   1.397       .  A
C3753      C3758   1.412       .  A
C3754      C3755   1.386       .  A
C3754      H3759   1.085       .  S
C3755      C3756   1.404       .  A
C3755      C3762   1.439       .  S
C3756      C3757   1.398       .  A
C3757      C3758   1.397       .  A
C3757      H3760   1.084       .  S
C3758      C3761   1.443       .  S
C3761      N3763   1.157       .  T
C3762      N3764   1.155       .  T
C3765      C3766   1.400       .  A
C3765      C3770   1.410       .  A
C3766      C3767   1.384       .  A
C3766      H3771   1.078       .  S
C3767      C3768   1.403       .  A
C3767      C3774   1.446       .  S
C3768      C3769   1.401       .  A
C3769      C3770   1.402       .  A
C3769      H3772   1.084       .  S
C3770      C3773   1.443       .  S
C3773      N3775   1.157       .  T
C3774      N3776   1.157       .  T
C3777      C3778   1.395       .  A
C3777      C3782   1.394       .  A
C3778      C3779   1.394       .  A
C3778      H3783   1.085       .  S
C3779      C3780   1.417       .  A
C3779      C3786   1.441       .  S
C3780      C3781   1.403       .  A
C3781      C3782   1.379       .  A
C3781      H3784   1.083       .  S
C3782      C3785   1.443       .  S
C3785      N3787   1.157       .  T
C3786      N3788   1.157       .  T
C3789      C3790   1.406       .  A
C3789      C3794   1.415       .  A
C3790      C3791   1.409       .  A
C3790      H3795   1.084       .  S
C3791      C3792   1.412       .  A
C3791      C3798   1.441       .  S
C3792      C3793   1.406       .  A
C3793      C3794   1.412       .  A
C3793      H3796   1.083       .  S
C3794      C3797   1.441       .  S
C3797      N3799   1.157   1_565  T
C3798      N3800   1.157       .  T
C3801      C3802   1.419       .  A
C3801      C3806   1.417       .  A
C3802      C3803   1.399       .  A
C3802      H3807   1.079       .  S
C3803      C3804   1.400       .  A
C3803      C3810   1.440       .  S
C3804      C3805   1.405       .  A
C3805      C3806   1.406       .  A
C3805      H3808   1.085       .  S
C3806      C3809   1.441       .  S
C3809      N3811   1.158       .  T
C3810      N3812   1.156   1_554  T
C3813      C3814   1.408       .  A
C3813      C3818   1.435       .  A
C3814      C3815   1.413       .  A
C3814      H3819   1.076       .  S
C3815      C3816   1.415       .  A
C3815      C3822   1.442       .  S
C3816      C3817   1.392       .  A
C3817      C3818   1.398       .  A
C3817      H3820   1.086       .  S
C3818      C3821   1.447       .  S
C3821      N3823   1.157   1_565  T
C3822      N3824   1.157       .  T
C3825      C3826   1.412       .  A
C3825      C3830   1.416       .  A
C3826      C3827   1.411       .  A
C3826      H3831   1.084       .  S
C3827      C3828   1.410       .  A
C3827      C3834   1.441       .  S
C3828      C3829   1.404       .  A
C3829      C3830   1.410       .  A
C3829      H3832   1.084       .  S
C3830      C3833   1.438       .  S
C3833      N3835   1.156       .  T
C3834      N3836   1.157       .  T
C3837      C3838   1.406       .  A
C3837      C3842   1.405       .  A
C3838      C3839   1.391       .  A
C3838      H3843   1.077       .  S
C3839      C3840   1.403       .  A
C3839      C3846   1.444       .  S
C3840      C3841   1.408       .  A
C3841      C3842   1.402       .  A
C3841      H3844   1.085       .  S
C3842      C3845   1.442       .  S
C3845      N3847   1.157       .  T
C3846      N3848   1.157       .  T
C3849      C3850   1.407       .  A
C3849      C3854   1.424       .  A
C3850      C3851   1.428       .  A
C3850      H3855   1.083       .  S
C3851      C3852   1.439       .  A
C3851      C3858   1.440       .  S
C3852      C3853   1.423       .  A
C3853      C3854   1.439       .  A
C3853      H3856   1.081       .  S
C3854      C3857   1.441       .  S
C3857      N3859   1.157       .  T
C3858      N3860   1.157       .  T
C3861      C3862   1.404       .  A
C3861      C3866   1.409       .  A
C3862      C3863   1.395       .  A
C3862      H3867   1.083       .  S
C3863      C3864   1.405   1_545  A
C3863      C3870   1.442       .  S
C3864      C3865   1.405       .  A
C3865      C3866   1.404   1_565  A
C3865      H3868   1.084       .  S
C3866      C3869   1.441   1_545  S
C3869      N3871   1.157       .  T
C3870      N3872   1.157       .  T
C3873      C3874   1.418       .  A
C3873      C3878   1.428       .  A
C3874      C3875   1.417       .  A
C3874      H3879   1.079       .  S
C3875      C3876   1.415       .  A
C3875      C3882   1.443       .  S
C3876      C3877   1.409       .  A
C3877      C3878   1.425       .  A
C3877      H3880   1.084       .  S
C3878      C3881   1.442       .  S
C3881      N3883   1.157       .  T
C3882      N3884   1.157       .  T
C3885      C3886   1.413       .  A
C3885      C3890   1.409       .  A
C3886      C3887   1.393       .  A
C3886      H3891   1.082       .  S
C3887      C3888   1.400       .  A
C3887      C3894   1.445       .  S
C3888      C3889   1.400       .  A
C3889      C3890   1.391       .  A
C3889      H3892   1.085       .  S
C3890      C3893   1.443       .  S
C3893      N3895   1.157       .  T
C3894      N3896   1.157   1_554  T
C3897      C3898   1.404       .  A
C3897      C3902   1.410       .  A
C3898      C3899   1.391       .  A
C3898      H3903   1.085       .  S
C3899      C3900   1.403       .  A
C3899      C3906   1.441       .  S
C3900      C3901   1.406       .  A
C3901      C3902   1.406       .  A
C3901      H3904   1.085       .  S
C3902      C3905   1.443       .  S
C3905      N3907   1.157       .  T
C3906      N3908   1.156       .  T
C3909      C3910   1.396       .  A
C3909      C3914   1.408       .  A
C3910      C3911   1.395       .  A
C3910      H3915   1.085       .  S
C3911      C3912   1.420       .  A
C3911      C3918   1.445       .  S
C3912      C3913   1.405       .  A
C3913      C3914   1.400       .  A
C3913      H3916   1.084       .  S
C3914      C3917   1.442       .  S
C3917      N3919   1.157       .  T
C3918      N3920   1.157       .  T
C3921      C3922   1.410       .  A
C3921      C3926   1.425       .  A
C3922      C3923   1.404       .  A
C3922      H3927   1.076       .  S
C3923      C3924   1.413       .  A
C3923      C3930   1.442       .  S
C3924      C3925   1.417       .  A
C3925      C3926   1.428       .  A
C3925      H3928   1.083       .  S
C3926      C3929   1.442       .  S
C3929      N3931   1.157       .  T
C3930      N3932   1.157       .  T
C3933      C3934   1.411       .  A
C3933      C3938   1.416       .  A
C3934      C3935   1.407       .  A
C3934      H3939   1.084       .  S
C3935      C3936   1.407       .  A
C3935      C3942   1.442       .  S
C3936      C3937   1.408       .  A
C3937      C3938   1.416       .  A
C3937      H3940   1.084       .  S
C3938      C3941   1.441       .  S
C3941      N3943   1.157       .  T
C3942      N3944   1.157       .  T
C3945      C3946   1.398       .  A
C3945      C3950   1.411       .  A
C3946      C3947   1.389       .  A
C3946      H3951   1.085       .  S
C3947      C3948   1.406       .  A
C3947      C3954   1.440       .  S
C3948      C3949   1.403       .  A
C3949      C3950   1.402       .  A
C3949      H3952   1.085       .  S
C3950      C3953   1.443       .  S
C3953      N3955   1.157       .  T
C3954      N3956   1.155       .  T
C3957      C3958   1.404       .  A
C3957      C3962   1.408       .  A
C3958      C3959   1.398       .  A
C3958      H3963   1.085       .  S
C3959      C3960   1.408       .  A
C3959      C3966   1.444       .  S
C3960      C3961   1.405       .  A
C3961      C3962   1.403       .  A
C3961      H3964   1.083       .  S
C3962      C3965   1.443       .  S
C3965      N3967   1.157       .  T
C3966      N3968   1.157       .  T
C3969      C3970   1.391       .  A
C3969      C3974   1.407       .  A
C3970      C3971   1.382       .  A
C3970      H3975   1.085       .  S
C3971      C3972   1.409       .  A
C3971      C3978   1.444       .  S
C3972      C3973   1.397       .  A
C3973      C3974   1.390       .  A
C3973      H3976   1.085       .  S
C3974      C3977   1.442       .  S
C3977      N3979   1.157       .  T
C3978      N3980   1.156       .  T
C3981      C3982   1.400       .  A
C3981      C3986   1.414       .  A
C3982      C3983   1.404       .  A
C3982      H3987   1.085       .  S
C3983      C3984   1.421       .  A
C3983      C3990   1.443       .  S
C3984      C3985   1.410       .  A
C3985      C3986   1.416       .  A
C3985      H3988   1.084       .  S
C3986      C3989   1.442       .  S
C3989      N3991   1.157       .  T
C3990      N3992   1.157       .  T
C3993      C3994   1.411       .  A
C3993      C3998   1.420       .  A
C3994      C3995   1.428       .  A
C3994      H3999   1.084       .  S
C3995      C3996   1.431       .  A
C3995      C4002   1.442       .  S
C3996      C3997   1.416       .  A
C3997      C3998   1.421       .  A
C3997      H4000   1.076       .  S
C3998      C4001   1.439       .  S
C4001      N4003   1.157       .  T
C4002      N4004   1.157       .  T
C4005      C4006   1.400       .  A
C4005      C4010   1.402       .  A
C4006      C4007   1.396       .  A
C4006      H4011   1.085       .  S
C4007      C4008   1.411       .  A
C4007      C4014   1.444       .  S
C4008      C4009   1.402       .  A
C4009      C4010   1.378       .  A
C4009      H4012   1.086       .  S
C4010      C4013   1.444       .  S
C4013      N4015   1.156       .  T
C4014      N4016   1.157       .  T
C4017      C4018   1.410       .  A
C4017      C4022   1.417       .  A
C4018      C4019   1.394       .  A
C4018      H4023   1.081       .  S
C4019      C4020   1.408       .  A
C4019      C4026   1.441       .  S
C4020      C4021   1.406       .  A
C4021      C4022   1.402       .  A
C4021      H4024   1.084       .  S
C4022      C4025   1.441       .  S
C4025      N4027   1.157       .  T
C4026      N4028   1.158       .  T
C4029      C4030   1.413       .  A
C4029      C4034   1.413       .  A
C4030      C4031   1.425       .  A
C4030      H4035   1.084       .  S
C4031      C4032   1.424       .  A
C4031      C4038   1.442       .  S
C4032      C4033   1.410       .  A
C4033      C4034   1.402       .  A
C4033      H4036   1.079       .  S
C4034      C4037   1.443       .  S
C4037      N4039   1.157       .  T
C4038      N4040   1.157       .  T
C4041      C4042   1.408       .  A
C4041      C4046   1.414       .  A
C4042      C4043   1.393       .  A
C4042      H4047   1.082       .  S
C4043      C4044   1.408       .  A
C4043      C4050   1.445       .  S
C4044      C4045   1.401       .  A
C4045      C4046   1.403       .  A
C4045      H4048   1.085       .  S
C4046      C4049   1.442       .  S
C4049      N4051   1.157       .  T
C4050      N4052   1.157       .  T
C4053      C4054   1.396       .  A
C4053      C4058   1.409       .  A
C4054      C4055   1.399       .  A
C4054      H4059   1.085       .  S
C4055      C4056   1.425       .  A
C4055      C4062   1.445       .  S
C4056      C4057   1.409       .  A
C4057      C4058   1.402       .  A
C4057      H4060   1.084       .  S
C4058      C4061   1.443       .  S
C4061      N4063   1.157       .  T
C4062      N4064   1.158       .  T
C4065      C4066   1.410       .  A
C4065      C4070   1.409       .  A
C4066      C4067   1.391       .  A
C4066      H4071   1.085       .  S
C4067      C4068   1.398       .  A
C4067      C4074   1.442       .  S
C4068      C4069   1.402       .  A
C4069      C4070   1.395       .  A
C4069      H4072   1.083       .  S
C4070      C4073   1.443       .  S
C4073      N4075   1.157       .  T
C4074      N4076   1.157       .  T
C4077      C4078   1.401       .  A
C4077      C4082   1.405       .  A
C4078      C4079   1.403       .  A
C4078      H4083   1.085       .  S
C4079      C4080   1.418       .  A
C4079      C4086   1.442       .  S
C4080      C4081   1.414       .  A
C4081      C4082   1.403       .  A
C4081      H4084   1.083       .  S
C4082      C4085   1.443       .  S
C4085      N4087   1.157       .  T
C4086      N4088   1.157       .  T
C4089      C4090   1.407       .  A
C4089      C4094   1.412       .  A
C4090      C4091   1.404       .  A
C4090      H4095   1.082       .  S
C4091      C4092   1.417       .  A
C4091      C4098   1.445       .  S
C4092      C4093   1.408       .  A
C4093      C4094   1.404       .  A
C4093      H4096   1.078   1_545  S
C4094      C4097   1.443       .  S
C4097      N4099   1.157       .  T
C4098      N4100   1.158       .  T
C4101      C4102   1.400       .  A
C4101      C4106   1.407       .  A
C4102      C4103   1.397       .  A
C4102      H4107   1.085       .  S
C4103      C4104   1.418       .  A
C4103      C4110   1.444       .  S
C4104      C4105   1.410       .  A
C4105      C4106   1.399       .  A
C4105      H4108   1.084       .  S
C4106      C4109   1.445       .  S
C4109      N4111   1.157       .  T
C4110      N4112   1.157       .  T
C4113      C4114   1.402       .  A
C4113      C4118   1.415       .  A
C4114      C4115   1.400       .  A
C4114      H4119   1.085       .  S
C4115      C4116   1.414       .  A
C4115      C4122   1.445       .  S
C4116      C4117   1.402       .  A
C4117      C4118   1.403       .  A
C4117      H4120   1.085       .  S
C4118      C4121   1.442       .  S
C4121      N4123   1.157       .  T
C4122      N4124   1.157       .  T
C4125      C4126   1.392       .  A
C4125      C4130   1.405       .  A
C4126      C4127   1.388       .  A
C4126      H4131   1.084       .  S
C4127      C4128   1.414       .  A
C4127      C4134   1.445       .  S
C4128      C4129   1.397       .  A
C4129      C4130   1.388       .  A
C4129      H4132   1.085       .  S
C4130      C4133   1.443       .  S
C4133      N4135   1.157       .  T
C4134      N4136   1.157       .  T
C4137      C4138   1.405       .  A
C4137      C4142   1.412       .  A
C4138      C4139   1.397       .  A
C4138      H4143   1.084       .  S
C4139      C4140   1.404       .  A
C4139      C4146   1.442       .  S
C4140      C4141   1.400       .  A
C4141      C4142   1.402       .  A
C4141      H4144   1.084       .  S
C4142      C4145   1.442       .  S
C4145      N4147   1.157       .  T
C4146      N4148   1.157       .  T
C4149      C4150   1.402       .  A
C4149      C4154   1.412       .  A
C4150      C4151   1.413       .  A
C4150      H4155   1.085       .  S
C4151      C4152   1.427       .  A
C4151      C4158   1.444       .  S
C4152      C4153   1.412       .  A
C4153      C4154   1.410       .  A
C4153      H4156   1.080       .  S
C4154      C4157   1.442       .  S
C4157      N4159   1.157       .  T
C4158      N4160   1.157       .  T
C4161      C4162   1.401       .  A
C4161      C4166   1.404       .  A
C4162      C4163   1.393       .  A
C4162      H4167   1.085       .  S
C4163      C4164   1.403       .  A
C4163      C4170   1.444       .  S
C4164      C4165   1.399       .  A
C4165      C4166   1.383       .  A
C4165      H4168   1.086       .  S
C4166      C4169   1.445       .  S
C4169      N4171   1.157       .  T
C4170      N4172   1.157       .  T
