geometry optimzed in LAMMPS
_audit_creation_date              2020-11-30 
_audit_creation_method            'lammps2cif' 
_symmetry_space_group_name_H-M    'P1' 
_symmetry_Int_Tables_number       1 
_symmetry_cell_setting            triclinic 
loop_ 
_symmetry_equiv_pos_as_xyz 
  x,y,z 
_cell_length_a                    24.76282789 
_cell_length_b                    24.643579866561232 
_cell_length_c                    24.698879558839074 
_cell_angle_alpha                 90.0214036428596 
_cell_angle_beta                  90.04672882799944 
_cell_angle_gamma                 90.3110864130632 
loop_ 
_atom_site_label 
_atom_site_type_symbol 
_atom_site_fract_x 
_atom_site_fract_y 
_atom_site_fract_z 
_atom_site_charge 
N1          N  0.71340995  0.49906484  0.75466353    -0.35800
N2          N  0.79548279  0.49700700  0.83589453    -0.56300
N3          N  0.88182559  0.47045852  0.75448370    -0.35800
N4          N  0.79261744  0.48151864  0.67413230    -0.56300
C5          C  0.69246204  0.52518724  0.79770551     0.27800
C6          C  0.69073779  0.52022355  0.70994225     0.27800
C7          C  0.90982221  0.48927170  0.79806913     0.27800
C8          C  0.90889748  0.48321756  0.70864751     0.27800
C9          C  0.75016393  0.48359568  0.86321809     0.36400
C10         C  0.83563902  0.46811732  0.85796163     0.36400
C11         C  0.74679624  0.47246563  0.64508570     0.36400
C12         C  0.83347351  0.45640840  0.64825162     0.36400
C13         C  0.65750918  0.56507677  0.78049463    -0.21100
C14         C  0.65654110  0.56224725  0.72462609    -0.21100
C15         C  0.95730334  0.51304525  0.77986932    -0.21100
C16         C  0.95668339  0.50935093  0.72323121    -0.21100
C17         C  0.76096885  0.44470710  0.90212905    -0.22100
C18         C  0.81538349  0.43451413  0.89826292    -0.22100
C19         C  0.75816290  0.44024645  0.60073053    -0.22100
C20         C  0.81285833  0.42981973  0.60288157    -0.22100
C21         C  0.70017189  0.50719371  0.85109774    -0.17500
C22         C  0.69670938  0.49712962  0.65795938    -0.17500
C23         C  0.88869750  0.47176954  0.65548825    -0.17500
C24         C  0.88997497  0.48443958  0.85215051    -0.17500
H25         H  0.63561396  0.59324913  0.80563993     0.15400
H26         H  0.63312575  0.58791955  0.69805355     0.15400
H27         H  0.98826998  0.53215518  0.80433644     0.15400
H28         H  0.98726088  0.52515507  0.69615583     0.15400
H29         H  0.73313594  0.42517694  0.92975118     0.13700
H30         H  0.83830583  0.40729741  0.92343012     0.13700
H31         H  0.73071884  0.42665862  0.56941934     0.13700
H32         H  0.83579313  0.40854919  0.57227667     0.13700
H33         H  0.73599247  0.46344202  0.75628648     0.27000
H34         H  0.84576474  0.44841304  0.75595766     0.27000
N35         N  0.48744944  0.74845971  0.70783713    -0.35800
N36         N  0.51037415  0.85825680  0.78890248    -0.56300
N37         N  0.50011771  0.74086391  0.87843790    -0.35800
N38         N  0.47559217  0.66261732  0.79062032    -0.56300
C39         C  0.47925040  0.79288264  0.67715361     0.27800
C40         C  0.46539784  0.70641733  0.68049158     0.27800
C41         C  0.49803390  0.78620188  0.90941410     0.27800
C42         C  0.49085079  0.69659885  0.90932121     0.27800
C43         C  0.47592730  0.85884515  0.74628455     0.36400
C44         C  0.48103516  0.83989176  0.83138910     0.36400
C45         C  0.48908964  0.63559584  0.74464094     0.36400
C46         C  0.49800538  0.63390365  0.83146775     0.36400
C47         C  0.44886735  0.77942630  0.63194601    -0.21100
C48         C  0.44130659  0.72465861  0.63363602    -0.21100
C49         C  0.48998851  0.77074092  0.96276667    -0.21100
C50         C  0.48503787  0.71390041  0.96267136    -0.21100
C51         C  0.42482469  0.84223232  0.76337331    -0.22100
C52         C  0.42813174  0.83025773  0.81717291    -0.22100
C53         C  0.51986310  0.59069730  0.75611608    -0.22100
C54         C  0.52569916  0.59032885  0.81050913    -0.22100
C55         C  0.49281345  0.84590133  0.69369656    -0.17500
C56         C  0.47501666  0.65177286  0.69217538    -0.17500
C57         C  0.48995139  0.64263016  0.88788807    -0.17500
C58         C  0.49875005  0.83880286  0.88532404    -0.17500
H59         H  0.43106679  0.80615651  0.60253550     0.15400
H60         H  0.42175186  0.70028965  0.60318403     0.15400
H61         H  0.48556831  0.79720374  0.99740275     0.15400
H62         H  0.47740053  0.68877351  0.99773221     0.15400
H63         H  0.39008093  0.83423865  0.73785884     0.13700
H64         H  0.39572778  0.81602990  0.84300578     0.13700
H65         H  0.53851519  0.56222168  0.72875968     0.13700
H66         H  0.54837245  0.56133945  0.83252020     0.13700
H67         H  0.51089721  0.74694044  0.74255803     0.27000
H68         H  0.50904797  0.74088146  0.83758801     0.27000
N69         N  0.75036182  0.71891247  0.51972044    -0.35800
N70         N  0.83389514  0.80421011  0.52641740    -0.56300
N71         N  0.74884325  0.88717855  0.49604232    -0.35800
N72         N  0.66357290  0.79462746  0.48693388    -0.56300
C73         C  0.79258573  0.69559683  0.54489862     0.27800
C74         C  0.70683748  0.68783534  0.52998400     0.27800
C75         C  0.79268953  0.92013851  0.49913010     0.27800
C76         C  0.70363168  0.91712532  0.49123388     0.27800
C77         C  0.85922333  0.75819196  0.51066096     0.36400
C78         C  0.85310071  0.84334463  0.49340879     0.36400
C79         C  0.63733183  0.75188040  0.51007337     0.36400
C80         C  0.64525315  0.83951080  0.51252361     0.36400
C81         C  0.77538561  0.65079152  0.57407906    -0.21100
C82         C  0.72089112  0.64592354  0.56490660    -0.21100
C83         C  0.77517874  0.97344898  0.49558878    -0.21100
C84         C  0.71876917  0.97153888  0.48997704    -0.21100
C85         C  0.89437370  0.76817081  0.46848813    -0.22100
C86         C  0.88908287  0.82191263  0.45701658    -0.22100
C87         C  0.60395053  0.76961427  0.55117619    -0.22100
C88         C  0.61009072  0.82479587  0.55331127    -0.22100
C89         C  0.84605317  0.70651017  0.53018796    -0.17500
C90         C  0.65521235  0.69786605  0.50856016    -0.17500
C91         C  0.65077124  0.89374383  0.49352775    -0.17500
C92         C  0.84647514  0.89960509  0.50153741    -0.17500
H93         H  0.80005019  0.62305956  0.59727644     0.15400
H94         H  0.69505670  0.61529496  0.58275982     0.15400
H95         H  0.80000462  0.00968975  0.49633132     0.15400
H96         H  0.69230527  0.00621073  0.48745011     0.15400
H97         H  0.91893361  0.73957449  0.44651425     0.13700
H98         H  0.90918011  0.84426152  0.42596665     0.13700
H99         H  0.58200724  0.74488032  0.58006487     0.13700
H100        H  0.59292549  0.85183969  0.58266374     0.13700
H101        H  0.75262884  0.74922001  0.49031501     0.27000
H102        H  0.74947565  0.84494478  0.49701301     0.27000
O103        O  0.65916145  0.49259272  0.93803740    -0.77700
C104        C  0.57293623  0.51097463  0.10038375     0.83400
O105        O  0.55875455  0.33528117  0.01551522    -0.78800
O106        O  0.40716653  0.47725038  0.99886205    -0.80300
O107        O  0.47464241  0.54762598  0.89487406    -0.80100
O108        O  0.60612080  0.49928170  0.86602843    -0.78700
Zn109      Zn  0.60601717  0.46024316  0.99151908     1.55700
O110        O  0.49427893  0.58822186  0.97166965    -0.80100
Cd111      Cd  0.52837491  0.48320097  0.89250095     1.59700
Cd112      Cd  0.50864573  0.38519245  0.97069529     1.59600
O113        O  0.50533064  0.42435780  0.83723969    -0.80100
O114        O  0.53412349  0.45998967  0.96774839    -1.90600
Cd115      Cd  0.48692514  0.51137163  0.01138691     1.59900
O116        O  0.50863691  0.35266048  0.89145792    -0.80000
O117        O  0.52209764  0.51724039  0.09148453    -0.78700
C118        C  0.60967751  0.34140213  0.01924798     0.83800
C119        C  0.65273433  0.50074525  0.88749005     0.83500
O120        O  0.60397379  0.49295135  0.06351607    -0.77600
C121        C  0.48524929  0.59115355  0.92084663     0.84300
O122        O  0.63224352  0.38589206  0.00617874    -0.77700
C123        C  0.50599872  0.37323806  0.84388674     0.84400
C124        C  0.39732643  0.42601300  0.99745921     0.84800
O125        O  0.43464912  0.39187691  0.00766041    -0.80200
O126        O  0.65491673  0.49407533  0.56874962    -0.77700
C127        C  0.56977739  0.49606868  0.40085986     0.83400
O128        O  0.56526100  0.66193524  0.49989501    -0.78800
O129        O  0.40183422  0.52813921  0.48726819    -0.80300
O130        O  0.49949417  0.43462183  0.60636025    -0.80100
O131        O  0.60300246  0.50958284  0.63966282    -0.78700
Zn132      Zn  0.60296549  0.52671133  0.51259334     1.55700
O133        O  0.47298944  0.40744405  0.52421794    -0.80100
Cd134      Cd  0.52658007  0.51105922  0.60631311     1.59700
Cd135      Cd  0.50735299  0.60731786  0.52445599     1.59600
O136        O  0.48041494  0.56313953  0.65191666    -0.80100
O137        O  0.52916383  0.53139123  0.53113270    -1.90600
Cd138      Cd  0.47868445  0.48671228  0.48501312     1.59900
O139        O  0.49639226  0.63497056  0.60061740    -0.80000
O140        O  0.51819862  0.49513263  0.40729264    -0.69100
C141        C  0.61524144  0.65235269  0.50577862     0.83800
C142        C  0.64939559  0.49969806  0.61977883     0.83500
O143        O  0.60147192  0.48822663  0.44108962    -0.77600
C144        C  0.48146553  0.39789797  0.57492663     0.84300
O145        O  0.63191767  0.60368392  0.50972774    -0.77700
C146        C  0.48316064  0.61430643  0.64574199     0.84400
C147        C  0.39452871  0.57973684  0.48580800     0.84800
O148        O  0.43463817  0.61254225  0.48587644    -0.80200
O149        O  0.43259030  0.83403469  0.50643042    -0.77700
C150        C  0.59729079  0.92232570  0.48582787     0.83400
O151        O  0.48589370  0.93730566  0.65948781    -0.78800
O152        O  0.50126026  0.09135499  0.51447547    -0.80300
O153        O  0.39203128  0.01235224  0.42902623    -0.80100
O154        O  0.36629327  0.88915269  0.48348214    -0.78700
Zn155      Zn  0.48947399  0.89165645  0.52561181     1.55700
O156        O  0.47493460  0.99968206  0.39803280    -0.80100
Cd157      Cd  0.39059509  0.96643680  0.49761863     1.59700
Cd158      Cd  0.46536780  0.99190093  0.59907769     1.59600
O159        O  0.33162419  0.98747005  0.55316382    -0.80100
O160        O  0.46442071  0.96371599  0.52515738    -1.90600
Cd161      Cd  0.51135025  0.01116925  0.47765874     1.59900
O162        O  0.38711611  0.00652093  0.62090187    -0.80000
O163        O  0.59043666  0.97408107  0.48688484    -0.78700
C164        C  0.49599266  0.88778355  0.65031168     0.83800
C165        C  0.38333131  0.84195863  0.49433190     0.83500
O166        O  0.55654029  0.89066260  0.48064045    -0.77600
C167        C  0.42370473  0.00222934  0.38968446     0.84300
O168        O  0.50314739  0.87094745  0.60224240    -0.77700
C169        C  0.33977333  0.99789441  0.60280850     0.84400
C170        C  0.50531001  0.09801233  0.56601647     0.84800
O171        O  0.51590951  0.05732463  0.59583652    -0.80200
N172        N  0.51631002  0.24129067  0.77463520    -0.35800
N173        N  0.52062844  0.15950854  0.69003871    -0.56300
N174        N  0.47679399  0.24607535  0.60815325    -0.35800
N175        N  0.48887576  0.32386877  0.69852070    -0.56300
C176        C  0.54579992  0.19997313  0.79431060     0.27800
C177        C  0.53320237  0.28677078  0.79950886     0.27800
C178        C  0.49339546  0.20414322  0.57692756     0.27800
C179        C  0.48273264  0.29290750  0.58043524     0.27800
C180        C  0.50693545  0.13321283  0.73618155     0.36400
C181        C  0.48524009  0.14259852  0.65222515     0.36400
C182        C  0.47930530  0.34965459  0.74623638     0.36400
C183        C  0.45993702  0.34958564  0.65982346     0.36400
C184        C  0.58404472  0.21949822  0.83014394    -0.21100
C185        C  0.57599411  0.27483969  0.83372538    -0.21100
C186        C  0.50854830  0.22417117  0.52672928    -0.21100
C187        C  0.50207141  0.28057902  0.52901628    -0.21100
C188        C  0.46249078  0.09988719  0.72772449    -0.22100
C189        C  0.44859652  0.10661821  0.67436923    -0.22100
C190        C  0.44356645  0.39179789  0.73811634    -0.22100
C191        C  0.43127068  0.39173357  0.68360879    -0.22100
C192        C  0.53048433  0.14571629  0.78648050    -0.17500
C193        C  0.50578276  0.33641139  0.79557398    -0.17500
C194        C  0.47080452  0.34476434  0.60308036    -0.17500
C195        C  0.49408547  0.14990165  0.59643261    -0.17500
H196        H  0.61458744  0.19634769  0.85079023     0.15400
H197        H  0.59853412  0.30290903  0.85889831     0.15400
H198        H  0.52363292  0.20110692  0.49272646     0.15400
H199        H  0.51115787  0.30893261  0.49682736     0.15400
H200        H  0.43997776  0.07652199  0.75720483     0.13700
H201        H  0.41418226  0.08954855  0.65417307     0.13700
H202        H  0.42857771  0.42020293  0.76784130     0.13700
H203        H  0.40642713  0.42128795  0.66302387     0.13700
H204        H  0.48092682  0.23731320  0.75168824     0.27000
H205        H  0.46040764  0.24248691  0.64694199     0.27000
O206        O  0.44150989  0.16623781  0.98032560    -0.77700
C207        C  0.59829988  0.07111264  0.00748898     0.83400
O208        O  0.51077455  0.06011371  0.82758583    -0.78800
O209        O  0.51091727  0.90346707  0.96151330    -0.80300
O210        O  0.39249504  0.01241042  0.05091193    -0.80100
O211        O  0.36907680  0.11510663  0.96785415    -0.78700
Zn212      Zn  0.49566012  0.10753996  0.95730016     1.55700
O213        O  0.47251594  0.98114633  0.07863742    -0.80100
Cd214      Cd  0.39396793  0.03694983  0.97323588     1.59700
Cd215      Cd  0.46576302  0.01235417  0.87917898     1.59600
O216        O  0.33885050  0.99732190  0.92416240    -0.80100
O217        O  0.46929195  0.03476885  0.95359116    -1.90600
Cd218      Cd  0.51296287  0.98263292  0.00056003     1.59900
O219        O  0.38703825  0.01796042  0.85172862    -0.80000
O220        O  0.59292651  0.01954624  0.00187335    -0.78700
C221        C  0.52033452  0.11045430  0.83446910     0.83800
C222        C  0.39049217  0.16125647  0.97634679     0.83500
O223        O  0.55621892  0.10071266  0.01101083    -0.77600
C224        C  0.42307856  0.99412704  0.08824395     0.84300
O225        O  0.51619730  0.13217130  0.88113808    -0.77700
C226        C  0.34233865  0.00382748  0.87327816     0.84400
C227        C  0.49916714  0.89408149  0.91158885     0.84800
O228        O  0.48564219  0.93264470  0.87985953    -0.80200
N229        N  0.74072557  0.28273772  0.03194444    -0.35800
N230        N  0.65898088  0.19795758  0.03550198    -0.56300
N231        N  0.74904661  0.11318353  0.01856746    -0.35800
N232        N  0.82737422  0.20540868  0.00993398    -0.56300
C233        C  0.69717648  0.30751248  0.05315448     0.27800
C234        C  0.78373808  0.31417342  0.04304755     0.27800
C235        C  0.70508623  0.08132689  0.01026913     0.27800
C236        C  0.79440308  0.08526767  0.00617545     0.27800
C237        C  0.63337983  0.24303600  0.01733384     0.36400
C238        C  0.64525968  0.15828920  0.00042477     0.36400
C239        C  0.85478286  0.24966621  0.02786380     0.36400
C240        C  0.85353849  0.16193991  0.03029534     0.36400
C241        C  0.71288782  0.35385699  0.08081448    -0.21100
C242        C  0.76791759  0.35802348  0.07468508    -0.21100
C243        C  0.72264591  0.03043760  0.99410274    -0.21100
C244        C  0.77914474  0.03312468  0.99090500    -0.21100
C245        C  0.60279478  0.23179127  0.97200929    -0.22100
C246        C  0.61181434  0.17850714  0.96072919    -0.22100
C247        C  0.89704778  0.23464581  0.06104796    -0.22100
C248        C  0.89521815  0.17920091  0.06360923    -0.22100
C249        C  0.64458039  0.29556457  0.03592646    -0.17500
C250        C  0.83626463  0.30327645  0.02449753    -0.17500
C251        C  0.84759512  0.10794672  0.01057924    -0.17500
C252        C  0.65137188  0.10210827  0.00993285    -0.17500
H253        H  0.68706821  0.38293118  0.10086897     0.15400
H254        H  0.79289916  0.38958158  0.09217807     0.15400
H255        H  0.69768639  0.99621985  0.98243743     0.15400
H256        H  0.80548324  0.00065175  0.97823547     0.15400
H257        H  0.57925824  0.25949834  0.94782200     0.13700
H258        H  0.59463759  0.15528741  0.92832031     0.13700
H259        H  0.92361648  0.26092085  0.08417194     0.13700
H260        H  0.92115575  0.15366976  0.08729302     0.13700
H261        H  0.74005310  0.25109332  0.00386403     0.27000
H262        H  0.74776164  0.15289716  0.03299959     0.27000
N263        N  0.27971527  0.99353347  0.73995087    -0.35800
N264        N  0.19753191  0.99461333  0.82294688    -0.56300
N265        N  0.10961207  0.02530753  0.73881432    -0.35800
N266        N  0.20307230  0.01949711  0.62474891    -0.56300
C267        C  0.30677441  0.97667098  0.78409457     0.27800
C268        C  0.31044232  0.98122404  0.69694654     0.27800
C269        C  0.07918223  0.01270385  0.78243190     0.27800
C270        C  0.07979347  0.02009843  0.69323014     0.27800
C271        C  0.24266629  0.01121984  0.84980763     0.36400
C272        C  0.15649059  0.02450772  0.84279056     0.36400
C273        C  0.24203298  0.98118803  0.62949879     0.36400
C274        C  0.15693849  0.99533833  0.64232254     0.36400
C275        C  0.35364878  0.95066475  0.76865920    -0.21100
C276        C  0.35587930  0.95300080  0.71335135    -0.21100
C277        C  0.02695899  0.00181481  0.76456785    -0.21100
C278        C  0.02722789  0.00699257  0.70788521    -0.21100
C279        C  0.23027264  0.05090223  0.88719769    -0.22100
C280        C  0.17587537  0.06006084  0.88142532    -0.22100
C281        C  0.21917076  0.93309485  0.64854473    -0.22100
C282        C  0.16554185  0.94211248  0.65661168    -0.22100
C283        C  0.29525910  0.99396247  0.83684235    -0.17500
C284        C  0.29564551  0.99405200  0.64346933    -0.17500
C285        C  0.10481013  0.01807016  0.64138183    -0.17500
C286        C  0.10095652  0.01136989  0.83596966    -0.17500
H287        H  0.38422743  0.93425891  0.79503348     0.15400
H288        H  0.38670186  0.93491320  0.68844121     0.15400
H289        H  0.99285189  0.98977465  0.78921696     0.15400
H290        H  0.99395114  0.99783980  0.68091937     0.15400
H291        H  0.25783016  0.07321680  0.91308887     0.13700
H292        H  0.15246366  0.09060083  0.90119410     0.13700
H293        H  0.24054670  0.89676982  0.66046869     0.13700
H294        H  0.13609467  0.91332996  0.67186680     0.13700
H295        H  0.24548622  0.01818287  0.73866201     0.27000
H296        H  0.15067508  0.03598991  0.73942064     0.27000
N297        N  0.98577911  0.75674263  0.28043687    -0.35800
N298        N  0.98016671  0.83764346  0.19378109    -0.56300
N299        N  0.01912667  0.75417046  0.11154717    -0.35800
N300        N  0.01049038  0.67579751  0.20316483    -0.56300
C301        C  0.95522550  0.79797154  0.29832248     0.27800
C302        C  0.96658499  0.71124471  0.30345451     0.27800
C303        C  0.00071089  0.79600067  0.08093410     0.27800
C304        C  0.01008529  0.70692668  0.08519508     0.27800
C305        C  0.99312764  0.86466224  0.23974427     0.36400
C306        C  0.01222965  0.85849863  0.15497534     0.36400
C307        C  0.01924847  0.64825194  0.25007132     0.36400
C308        C  0.03710526  0.64964065  0.16324469     0.36400
C309        C  0.91446509  0.77864680  0.33121965    -0.21100
C310        C  0.92173040  0.72320252  0.33477163    -0.21100
C311        C  0.98073331  0.77527604  0.03272852    -0.21100
C312        C  0.98629436  0.71878956  0.03556656    -0.21100
C313        C  0.03426919  0.90169393  0.23046471    -0.22100
C314        C  0.04658174  0.89699354  0.17666506    -0.22100
C315        C  0.05288866  0.60474684  0.24050130    -0.22100
C316        C  0.06437467  0.60570573  0.18573686    -0.22100
C317        C  0.97016522  0.85203091  0.29010732    -0.17500
C318        C  0.99266713  0.66104484  0.29940008    -0.17500
C319        C  0.02315502  0.65491637  0.10712955    -0.17500
C320        C  0.00228621  0.85082738  0.09930800    -0.17500
H321        H  0.88237699  0.80185239  0.34931953     0.15400
H322        H  0.89694568  0.69499932  0.35751210     0.15400
H323        H  0.96274053  0.79796808  0.99991388     0.15400
H324        H  0.97355119  0.68998794  0.00499442     0.15400
H325        H  0.05528417  0.92711933  0.25939777     0.13700
H326        H  0.07812314  0.91780140  0.15567261     0.13700
H327        H  0.06631700  0.57455257  0.26921822     0.13700
H328        H  0.08687872  0.57511031  0.16399519     0.13700
H329        H  0.02213199  0.76061088  0.25940290     0.27000
H330        H  0.03879945  0.75794395  0.14887114     0.27000
N331        N  0.24461326  0.78457142  0.49417803    -0.35800
N332        N  0.16080964  0.70200202  0.49886395    -0.56300
N333        N  0.24314637  0.61232107  0.48180474    -0.35800
N334        N  0.36134583  0.70362305  0.48307314    -0.56300
C335        C  0.20079392  0.81195863  0.51121551     0.27800
C336        C  0.28792884  0.81512161  0.50705468     0.27800
C337        C  0.19864905  0.58251744  0.49312090     0.27800
C338        C  0.28781601  0.58186434  0.48879227     0.27800
C339        C  0.13440726  0.74625432  0.48000495     0.36400
C340        C  0.13964081  0.65894225  0.47245116     0.36400
C341        C  0.35326052  0.74600495  0.51708687     0.36400
C342        C  0.34164429  0.65950260  0.50941972     0.36400
C343        C  0.21678724  0.85890797  0.53763262    -0.21100
C344        C  0.27197485  0.86080722  0.53542252    -0.21100
C345        C  0.21511943  0.53025709  0.50608286    -0.21100
C346        C  0.27180330  0.52961578  0.50256021    -0.21100
C347        C  0.09611618  0.73154224  0.44196022    -0.22100
C348        C  0.10056251  0.67622843  0.43647652    -0.22100
C349        C  0.32958116  0.72744764  0.56485872    -0.22100
C350        C  0.32196093  0.67289715  0.55978361    -0.22100
C351        C  0.14764464  0.79965083  0.49523342    -0.17500
C352        C  0.34152856  0.79840577  0.49831406    -0.17500
C353        C  0.34011971  0.60628208  0.48884046    -0.17500
C354        C  0.14552096  0.60440123  0.48995598    -0.17500
H355        H  0.19101476  0.88913592  0.55556218     0.15400
H356        H  0.29723734  0.89081844  0.55485453     0.15400
H357        H  0.18945628  0.49645581  0.51734673     0.15400
H358        H  0.29775669  0.49589104  0.51251688     0.15400
H359        H  0.06986916  0.75783662  0.41887332     0.13700
H360        H  0.07850853  0.65053420  0.40910821     0.13700
H361        H  0.31453772  0.75211326  0.59781316     0.13700
H362        H  0.30310085  0.64611732  0.58899862     0.13700
H363        H  0.24554268  0.74960476  0.47035380     0.27000
H364        H  0.24383095  0.65284425  0.46951478     0.27000
N365        N  0.77545606  0.49839452  0.25770266    -0.35800
N366        N  0.69302364  0.49783457  0.33747792    -0.56300
N367        N  0.60738759  0.52439200  0.25144190    -0.35800
N368        N  0.69706326  0.51294320  0.17375920    -0.56300
C369        C  0.79688459  0.47380991  0.30142955     0.27800
C370        C  0.79924223  0.47708511  0.21373143     0.27800
C371        C  0.57835689  0.50659435  0.29453927     0.27800
C372        C  0.58012804  0.51323798  0.20530596     0.27800
C373        C  0.73725610  0.51390593  0.36545184     0.36400
C374        C  0.65182911  0.52781035  0.35562973     0.36400
C375        C  0.74382103  0.52299692  0.14669427     0.36400
C376        C  0.65704458  0.53814364  0.14646182     0.36400
C377        C  0.83274647  0.43436758  0.28545208    -0.21100
C378        C  0.83437748  0.43624885  0.22962726    -0.21100
C379        C  0.52996976  0.48504671  0.27578020    -0.21100
C380        C  0.53108687  0.48921565  0.21918185    -0.21100
C381        C  0.72444853  0.55469432  0.40164838    -0.22100
C382        C  0.67003791  0.56388142  0.39459436    -0.22100
C383        C  0.73367747  0.55542659  0.10215101    -0.22100
C384        C  0.67896379  0.56522832  0.10217537    -0.22100
C385        C  0.78851711  0.49266817  0.35432193    -0.17500
C386        C  0.79404977  0.49978379  0.16156488    -0.17500
C387        C  0.60125849  0.52454353  0.15262712    -0.17500
C388        C  0.59785414  0.51101085  0.34870694    -0.17500
H389        H  0.85442277  0.40683199  0.31142807     0.15400
H390        H  0.85881365  0.41070221  0.20389635     0.15400
H391        H  0.49785312  0.46751633  0.29986709     0.15400
H392        H  0.49990541  0.47530447  0.19171048     0.15400
H393        H  0.75127523  0.57674675  0.42847221     0.13700
H394        H  0.64572802  0.59333726  0.41524185     0.13700
H395        H  0.76201991  0.57032403  0.07235401     0.13700
H396        H  0.65707468  0.58719542  0.07127226     0.13700
H397        H  0.75177923  0.53339037  0.25831310     0.27000
H398        H  0.64426680  0.54500778  0.25358930     0.27000
O399        O  0.82957574  0.50871400  0.44140764    -0.77700
C400        C  0.91693213  0.48770136  0.60392868     0.83400
O401        O  0.93218440  0.66580432  0.51518936    -0.78800
O402        O  0.08391308  0.52523735  0.50407402    -0.80300
O403        O  0.01370496  0.45055750  0.40022638    -0.80100
O404        O  0.88275309  0.50242173  0.36948596    -0.78700
Zn405      Zn  0.88404600  0.53952360  0.49509729     1.55700
O406        O  0.99574078  0.41052128  0.47744592    -0.80100
Cd407      Cd  0.96153215  0.51593196  0.39624171     1.59700
Cd408      Cd  0.98205964  0.61379788  0.47389109     1.59600
O409        O  0.98966928  0.57271077  0.34082614    -0.80100
O410        O  0.95623271  0.53909253  0.47159288    -1.90600
Cd411      Cd  0.00408397  0.48855383  0.51574737     1.59900
O412        O  0.98500050  0.64456941  0.39455723    -0.80000
O413        O  0.96792086  0.48224734  0.59527556    -0.78700
C414        C  0.88132675  0.65977709  0.51796873     0.83800
C415        C  0.83595471  0.50087187  0.39079926     0.83500
O416        O  0.88573814  0.50621781  0.56729298    -0.77600
C417        C  0.00275332  0.40730756  0.42635275     0.84300
O418        O  0.85920017  0.61443003  0.50746932    -0.77700
C419        C  0.98979105  0.62384452  0.34728781     0.84400
C420        C  0.09266107  0.57682822  0.50404465     0.84800
O421        O  0.05414417  0.60950703  0.51372450    -0.80200
O422        O  0.05950856  0.84084153  0.48809682    -0.77700
C423        C  0.89961840  0.93059432  0.50408468     0.83400
O424        O  0.98465879  0.93884668  0.33004919    -0.78800
O425        O  0.98430138  0.09683976  0.45853123    -0.80300
O426        O  0.10958713  0.99980713  0.54880016    -0.80100
O427        O  0.13199593  0.89190915  0.47566335    -0.78700
Zn428      Zn  0.00498375  0.89563065  0.45971720     1.55700
O429        O  0.02729486  0.02339386  0.57765981    -0.80100
Cd430      Cd  0.10574849  0.96966627  0.47310272     1.59700
Cd431      Cd  0.03062039  0.98909855  0.37810261     1.59600
O432        O  0.16002291  0.00367648  0.41976041    -0.80100
O433        O  0.02995632  0.96869434  0.45366769    -1.90600
Cd434      Cd  0.98509523  0.01974783  0.49984033     1.59900
O435        O  0.10910198  0.98600843  0.34806926    -0.80000
O436        O  0.90534948  0.98215945  0.49926682    -0.78700
C437        C  0.97977916  0.88800007  0.33746502     0.83800
C438        C  0.11056374  0.84613657  0.48573878     0.83500
O439        O  0.94146543  0.90108123  0.50997208    -0.77600
C440        C  0.07793282  0.01468935  0.58668303     0.84300
O441        O  0.98804014  0.86701712  0.38387214    -0.77700
C442        C  0.15496961  0.99756073  0.36896728     0.84400
C443        C  0.99355435  0.10576976  0.40806789     0.84800
O444        O  0.00669133  0.06744555  0.37596691    -0.80200
O445        O  0.83795394  0.50718033  0.07415507    -0.77700
C446        C  0.91782930  0.49903048  0.90494046     0.83400
O447        O  0.92510183  0.33886699  0.00846157    -0.78800
O448        O  0.08758863  0.47005540  0.98762207    -0.80300
O449        O  0.99063748  0.56644023  0.11151328    -0.80100
O450        O  0.88835359  0.48815809  0.14531386    -0.78700
Zn451      Zn  0.88857399  0.47278747  0.01941887     1.55700
O452        O  0.01850643  0.59130909  0.02895450    -0.80100
Cd453      Cd  0.96479022  0.48966009  0.11208331     1.59700
Cd454      Cd  0.98307492  0.39243212  0.03374557     1.59600
O455        O  0.01372570  0.43955418  0.15699655    -0.80100
O456        O  0.96228635  0.46858435  0.03715600    -1.90600
Cd457      Cd  0.01092575  0.51204843  0.98883188     1.59900
O458        O  0.99256783  0.36581617  0.11017433    -0.80000
O459        O  0.96937673  0.50263021  0.91144754    -0.78700
C460        C  0.87565106  0.34855748  0.01773311     0.83800
C461        C  0.84236398  0.49893236  0.12487650     0.83500
O462        O  0.88592304  0.50402319  0.94533856    -0.77600
C463        C  0.00987544  0.60200319  0.07951480     0.84300
O464        O  0.85912949  0.39710607  0.02145771    -0.77700
C465        C  0.01014139  0.38823956  0.15288734     0.84400
C466        C  0.09615852  0.41871243  0.99139005     0.84800
O467        O  0.05751674  0.38539433  0.00021545    -0.80200
N468        N  0.21913737  0.00126970  0.23623178    -0.35800
N469        N  0.29841821  0.97800957  0.12688335    -0.56300
N470        N  0.38946021  0.97959028  0.23917327    -0.35800
N471        N  0.29996211  0.00623032  0.32218201    -0.56300
C472        C  0.19001054  0.01474439  0.19253919     0.27800
C473        C  0.19246375  0.02114898  0.27935724     0.27800
C474        C  0.41994926  0.98683165  0.19447173     0.27800
C475        C  0.41891850  0.99122348  0.28368017     0.27800
C476        C  0.25705586  0.01384126  0.12468655     0.36400
C477        C  0.34224659  0.00728877  0.14233981     0.36400
C478        C  0.25439177  0.98709145  0.34620858     0.36400
C479        C  0.34076571  0.97577135  0.34148420     0.36400
C480        C  0.14706674  0.04751856  0.20752820    -0.21100
C481        C  0.14808245  0.05038080  0.26275928    -0.21100
C482        C  0.47202632  0.00049183  0.21048256    -0.21100
C483        C  0.47125483  0.00373298  0.26729861    -0.21100
C484        C  0.27619905  0.06545337  0.13763523    -0.22100
C485        C  0.32996165  0.06125102  0.14868163    -0.22100
C486        C  0.26601524  0.94454680  0.38056145    -0.22100
C487        C  0.32084232  0.93678670  0.37639970    -0.22100
C488        C  0.20421023  0.99956733  0.13955598    -0.17500
C489        C  0.20232113  0.00478337  0.33245632    -0.17500
C490        C  0.39604619  0.99007224  0.33656545    -0.17500
C491        C  0.39582553  0.98881448  0.14232808    -0.17500
H492        H  0.11871893  0.06826699  0.18170558     0.15400
H493        H  0.11865208  0.06983405  0.28829308     0.15400
H494        H  0.50561305  0.01089627  0.18442049     0.15400
H495        H  0.50473712  0.01542783  0.29300253     0.15400
H496        H  0.25214716  0.10138351  0.14443733     0.13700
H497        H  0.35711641  0.09382823  0.16024112     0.13700
H498        H  0.23773593  0.91958002  0.40299551     0.13700
H499        H  0.34383346  0.90466391  0.39427703     0.13700
H500        H  0.25175981  0.97443171  0.23637959     0.27000
H501        H  0.34881738  0.96790245  0.23867363     0.27000
O502        O  0.06802704  0.16607333  0.99575529    -0.77700
C503        C  0.90073433  0.08046705  0.99668408     0.83400
O504        O  0.01630826  0.06675862  0.15891281    -0.78800
O505        O  0.99557738  0.90923065  0.01644261    -0.80300
O506        O  0.10356607  0.98548660  0.92744517    -0.80100
O507        O  0.13557497  0.10824018  0.99046818    -0.78700
Zn508      Zn  0.01411095  0.11031597  0.02390155     1.55700
O509        O  0.02104166  0.00187258  0.89743300    -0.80100
Cd510      Cd  0.10896860  0.03014073  0.99696861     1.59700
Cd511      Cd  0.03337789  0.01012348  0.09851135     1.59600
O512        O  0.16803781  0.00291945  0.04906155    -0.80100
O513        O  0.03523905  0.03639444  0.02404452    -1.90600
Cd514      Cd  0.98580764  0.98980176  0.97859002     1.59900
O515        O  0.11191219  0.99503858  0.11800332    -0.80000
O516        O  0.90797438  0.02872497  0.99401999    -0.78700
C517        C  0.01655203  0.11738314  0.14937076     0.83800
C518        C  0.11830746  0.15663506  0.99248647     0.83500
O519        O  0.94069837  0.11295239  0.99029714    -0.77600
C520        C  0.07220774  0.99797408  0.88854915     0.84300
O521        O  0.01390134  0.13448615  0.10096439    -0.77700
C522        C  0.15960858  0.99733017  0.09931516     0.84400
C523        C  0.99189501  0.90296242  0.06816097     0.84800
O524        O  0.98260582  0.94429856  0.09765694    -0.80200
N525        N  0.02308250  0.25489718  0.21163802    -0.35800
N526        N  0.99625361  0.14037382  0.28526365    -0.56300
N527        N  0.98577039  0.25854816  0.37997875    -0.35800
N528        N  0.01631362  0.33874352  0.29684745    -0.56300
C529        C  0.03478444  0.21271254  0.17901035     0.27800
C530        C  0.04055854  0.29994448  0.18630115     0.27800
C531        C  0.98939711  0.21222007  0.40896234     0.27800
C532        C  0.99431065  0.30165597  0.41281292     0.27800
C533        C  0.03545807  0.14492633  0.24717850     0.36400
C534        C  0.01718692  0.16258257  0.33101464     0.36400
C535        C  0.00474213  0.36638319  0.25081903     0.36400
C536        C  0.99022781  0.36548308  0.33676295     0.36400
C537        C  0.06261466  0.23056613  0.13376311    -0.21100
C538        C  0.06610835  0.28590208  0.13848639    -0.21100
C539        C  0.99642114  0.22561703  0.46305495    -0.21100
C540        C  0.99993196  0.28246978  0.46545043    -0.21100
C541        C  0.08177622  0.16701882  0.27096908    -0.22100
C542        C  0.06992295  0.17873214  0.32356387    -0.22100
C543        C  0.97181451  0.41008260  0.26156312    -0.22100
C544        C  0.96265528  0.40889206  0.31550093    -0.22100
C545        C  0.02347839  0.15855932  0.19320873    -0.17500
C546        C  0.02301086  0.35243777  0.19894154    -0.17500
C547        C  0.99651166  0.35609974  0.39306762    -0.17500
C548        C  0.99323382  0.16101027  0.38263883    -0.17500
H549        H  0.08000616  0.20668444  0.10159963     0.15400
H550        H  0.08268048  0.31338705  0.10874278     0.15400
H551        H  0.00221383  0.19792077  0.49647243     0.15400
H552        H  0.00736964  0.30634547  0.50144355     0.15400
H553        H  0.11834865  0.17940436  0.25023053     0.13700
H554        H  0.09671855  0.19700357  0.35313038     0.13700
H555        H  0.95470065  0.43930395  0.23395390     0.13700
H556        H  0.93875261  0.43716704  0.33727120     0.13700
H557        H  0.99895219  0.25276367  0.24601589     0.27000
H558        H  0.97740014  0.25968903  0.33900846     0.27000
N559        N  0.25518248  0.21739278  0.98513860    -0.35800
N560        N  0.13394884  0.29519449  0.98307845    -0.56300
N561        N  0.24718122  0.39195468  0.97311787    -0.35800
N562        N  0.33366611  0.30357507  0.98655774    -0.56300
C563        C  0.21383853  0.18563310  0.00098017     0.27800
C564        C  0.30067213  0.19370736  0.00318386     0.27800
C565        C  0.20222690  0.42024479  0.98525640     0.27800
C566        C  0.29143266  0.42183178  0.98530976     0.27800
C567        C  0.14748548  0.25278778  0.01530907     0.36400
C568        C  0.15376844  0.33994043  0.00847659     0.36400
C569        C  0.36242821  0.26091561  0.96774273     0.36400
C570        C  0.35060110  0.34757686  0.95902714     0.36400
C571        C  0.23273959  0.14276900  0.03187862    -0.21100
C572        C  0.28779135  0.14810351  0.03324299    -0.21100
C573        C  0.21756947  0.47156510  0.00286913    -0.21100
C574        C  0.27438143  0.47231343  0.00358903    -0.21100
C575        C  0.17413255  0.27195155  0.06134761    -0.22100
C576        C  0.17895006  0.32677708  0.05642360    -0.22100
C577        C  0.39846308  0.27756100  0.92840079    -0.22100
C578        C  0.39001014  0.33254698  0.92230723    -0.22100
C579        C  0.15956095  0.20084369  0.99487763    -0.17500
C580        C  0.35261071  0.20736727  0.98481633    -0.17500
C581        C  0.34469444  0.40078303  0.97963435    -0.17500
C582        C  0.15123232  0.39357434  0.98887561    -0.17500
H583        H  0.20957738  0.11262190  0.05369208     0.15400
H584        H  0.31567904  0.12102547  0.05300167     0.15400
H585        H  0.19133629  0.50311108  0.01791593     0.15400
H586        H  0.29975391  0.50545823  0.01726419     0.15400
H587        H  0.19335533  0.24773825  0.09239163     0.13700
H588        H  0.19940434  0.35399920  0.08418381     0.13700
H589        H  0.42631123  0.25276177  0.90557861     0.13700
H590        H  0.41090058  0.35973468  0.89528500     0.13700
H591        H  0.25183588  0.25079307  0.95945128     0.27000
H592        H  0.24692497  0.35233213  0.95836338     0.27000
loop_ 
_geom_bond_atom_site_label_1 
_geom_bond_atom_site_label_2 
_geom_bond_distance 
_geom_bond_site_symmetry_2 
_ccdc_geom_bond_type 
N1            C6   1.345       .  A
N1            C5   1.348       .  A
N1           H33   1.044       .  S
N2            C9   1.350       .  A
N2           C10   1.342       .  A
N3            C8   1.352       .  A
N3            C7   1.360       .  A
N3           H34   1.043       .  S
N4           C11   1.359       .  A
N4           C12   1.350       .  A
C5           C13   1.380       .  A
C5           C21   1.405       .  A
C6           C22   1.412       .  A
C6           C14   1.390       .  A
C7           C15   1.386       .  A
C7           C24   1.428       .  A
C8           C23   1.432       .  A
C8           C16   1.391       .  A
C9           C21   1.403       .  A
C9           C17   1.384       .  A
C10          C24   1.410       .  A
C10          C18   1.387       .  A
C11          C19   1.383       .  A
C11          C22   1.420       .  A
C12          C20   1.393       .  A
C12          C23   1.428       .  A
C13          C14   1.382       .  A
C13          H25   1.080       .  S
C14          H26   1.082       .  S
C15          C16   1.402       .  A
C15          H27   1.082       .  S
C16          H28   1.082       .  S
C17          C18   1.375       .  A
C17          H29   1.081       .  S
C18          H30   1.078       .  S
C19          C20   1.381       .  A
C19          H31   1.081       .  S
C20          H32   1.083       .  S
C21         C119   1.488       .  S
C22         C142   1.505       .  S
C23         C400   1.505       .  S
C24         C446   1.517       .  S
N35          C40   1.349       .  A
N35          C39   1.348       .  A
N35          H67   1.036       .  S
N36          C43   1.354       .  A
N36          C44   1.353       .  A
N37          C42   1.350       .  A
N37          C41   1.355       .  A
N37          H68   1.033       .  S
N38          C45   1.359       .  A
N38          C46   1.353       .  A
C39          C47   1.385       .  A
C39          C55   1.408       .  A
C40          C56   1.399       .  A
C40          C48   1.378       .  A
C41          C49   1.386       .  A
C41          C58   1.427       .  A
C42          C57   1.431       .  A
C42          C50   1.393       .  A
C43          C55   1.402       .  A
C43          C51   1.394       .  A
C44          C58   1.402       .  A
C44          C52   1.375       .  A
C45          C53   1.376       .  A
C45          C56   1.400       .  A
C46          C54   1.378       .  A
C46          C57   1.424       .  A
C47          C48   1.362       .  A
C47          H59   1.077       .  S
C48          H60   1.076       .  S
C49          C50   1.405       .  A
C49          H61   1.081       .  S
C50          H62   1.081       .  S
C51          C52   1.364       .  A
C51          H63   1.083       .  S
C52          H64   1.083       .  S
C53          C54   1.351       .  A
C53          H65   1.080       .  S
C54          H66   1.061       .  S
C55         C164   1.490       .  S
C56         C146   1.487       .  S
C57         C121   1.512       .  S
C58         C227   1.509       .  S
N69          C74   1.343       .  A
N69          C73   1.348       .  A
N69         H101   1.043       .  S
N70          C77   1.356       .  A
N70          C78   1.348       .  A
N71          C76   1.349       .  A
N71          C75   1.355       .  A
N71         H102   1.041       .  S
N72          C79   1.361       .  A
N72          C80   1.354       .  A
C73          C81   1.384       .  A
C73          C89   1.398       .  A
C74          C90   1.406       .  A
C74          C82   1.391       .  A
C75          C83   1.388       .  A
C75          C92   1.429       .  A
C76          C91   1.428       .  A
C76          C84   1.391       .  A
C77          C89   1.399       .  A
C77          C85   1.379       .  A
C78          C92   1.411       .  A
C78          C86   1.374       .  A
C79          C87   1.382       .  A
C79          C90   1.406       .  A
C80          C88   1.379       .  A
C80          C91   1.423       .  A
C81          C82   1.373       .  A
C81          H93   1.083       .  S
C82          H94   1.081       .  S
C83          C84   1.404       .  A
C83          H95   1.082   1_565  S
C84          H96   1.081   1_565  S
C85          C86   1.361       .  A
C85          H97   1.080       .  S
C86          H98   1.066       .  S
C87          C88   1.369       .  A
C87          H99   1.083       .  S
C88         H100   1.074       .  S
C89         C414   1.480       .  S
C90         C141   1.493       .  S
C91         C150   1.515       .  S
C92         C423   1.519       .  S
O103        C119   1.275       .  A
O103       Zn109   2.026       .  S
C104        C387   1.505       .  S
C104        O120   1.273       .  A
C104        O117   1.288       .  A
O105        C118   1.272       .  A
O105       Cd112   2.072   1_554  S
O106        C124   1.285       .  A
O106       Cd115   2.164   1_556  S
O107        C121   1.276       .  A
O107       Cd111   2.078       .  S
O108        C119   1.270       .  A
O108       Cd111   2.070       .  S
Zn109       O120   1.953   1_556  S
Zn109       O122   1.981   1_556  S
Zn109       O114   1.874       .  S
O110        C121   1.277       .  A
O110       Cd115   2.140   1_556  S
Cd111       O113   2.069       .  S
Cd111       O114   1.950       .  S
Cd112       O116   2.115       .  S
Cd112       O125   2.055   1_556  S
Cd112       O114   1.946       .  S
O113        C123   1.271       .  A
O114       Cd115   2.037   1_556  S
Cd115       O117   2.165       .  S
O116        C123   1.282       .  A
C118        C249   1.484       .  S
C118        O122   1.270       .  A
C123        C193   1.499       .  S
C124        C581   1.506       .  S
C124        O125   1.278   1_556  A
O126        C142   1.275       .  A
O126       Zn132   2.058       .  S
C127        C388   1.509       .  S
C127        O143   1.281       .  A
C127        O140   1.287       .  A
O128        C141   1.269       .  A
O128       Cd135   2.054       .  S
O129        C147   1.286       .  A
O129       Cd138   2.165       .  S
O130        C144   1.271       .  A
O130       Cd134   1.996       .  S
O131        C142   1.274       .  A
O131       Cd134   2.064       .  S
Zn132       O143   2.005       .  S
Zn132       O145   2.025       .  S
Zn132       O137   1.889       .  S
O133        C144   1.292       .  A
O133       Cd138   2.185       .  S
Cd134       O136   2.059       .  S
Cd134       O137   1.924       .  S
Cd135       O139   2.020       .  S
Cd135       O148   2.041       .  S
Cd135       O137   1.957       .  S
O136        C146   1.272       .  A
O137       Cd138   2.014       .  S
Cd138       O140   2.165       .  S
O139        C146   1.268       .  A
C141        O145   1.274       .  A
C144        C194   1.505       .  S
C147        C353   1.503       .  S
C147        O148   1.277       .  A
O149        C165   1.272       .  A
O149       Zn155   2.050       .  S
C150        O166   1.279       .  A
C150        O163   1.288       .  A
O151        C164   1.267       .  A
O151       Cd158   2.074       .  S
O152        C170   1.287       .  A
O152       Cd161   2.191       .  S
O153        C167   1.275       .  A
O153       Cd157   2.038   1_545  S
O154        C165   1.268       .  A
O154       Cd157   2.024       .  S
Zn155       O166   1.999       .  S
Zn155       O168   1.990       .  S
Zn155       O160   1.884       .  S
O156        C167   1.287   1_565  A
O156       Cd161   2.181   1_565  S
Cd157       O159   2.072       .  S
Cd157       O160   1.952       .  S
Cd158       O162   2.046   1_565  S
Cd158       O171   2.037   1_565  S
Cd158       O160   1.953       .  S
O159        C169   1.268       .  A
O160       Cd161   2.021   1_565  S
Cd161       O163   2.177   1_545  S
O162        C169   1.271   1_545  A
C164        O168   1.270       .  A
C165        C352   1.490       .  S
C167        C490   1.509   1_545  S
C169        C284   1.487       .  S
C170        C195   1.510       .  S
C170        O171   1.273       .  A
N172        C177   1.343       .  A
N172        C176   1.347       .  A
N172        H204   1.047       .  S
N173        C180   1.354       .  A
N173        C181   1.345       .  A
N174        C179   1.350       .  A
N174        C178   1.355       .  A
N174        H205   1.044       .  S
N175        C182   1.360       .  A
N175        C183   1.354       .  A
C176        C184   1.380       .  A
C176        C192   1.401       .  A
C177        C193   1.406       .  A
C177        C185   1.388       .  A
C178        C186   1.386       .  A
C178        C195   1.421       .  A
C179        C194   1.427       .  A
C179        C187   1.392       .  A
C180        C192   1.405       .  A
C180        C188   1.385       .  A
C181        C195   1.407       .  A
C181        C189   1.379       .  A
C182        C190   1.383       .  A
C182        C193   1.422       .  A
C183        C191   1.391       .  A
C183        C194   1.432       .  A
C184        C185   1.382       .  A
C184        H196   1.078       .  S
C185        H197   1.082       .  S
C186        C187   1.401       .  A
C186        H198   1.082       .  S
C187        H199   1.082       .  S
C188        C189   1.372       .  A
C188        H200   1.082       .  S
C189        H201   1.071       .  S
C190        C191   1.380       .  A
C190        H202   1.082       .  S
C191        H203   1.083       .  S
C192        C221   1.491       .  S
O206        C222   1.272       .  A
O206       Zn212   2.058       .  S
C207        C252   1.518       .  S
C207        O223   1.278       .  A
C207        O220   1.284       .  A
O208        C221   1.273       .  A
O208       Cd215   2.059       .  S
O209        C227   1.287       .  A
O209       Cd218   2.176   1_556  S
O210        C224   1.277   1_545  A
O210       Cd214   2.012   1_554  S
O211        C222   1.270       .  A
O211       Cd214   2.030       .  S
Zn212       O223   2.009   1_556  S
Zn212       O225   2.041       .  S
Zn212       O217   1.907       .  S
O213        C224   1.289       .  A
O213       Cd218   2.174       .  S
Cd214       O216   2.066   1_545  S
Cd214       O217   1.929       .  S
Cd215       O219   2.069       .  S
Cd215       O228   2.028   1_545  S
Cd215       O217   1.921       .  S
O216        C226   1.270   1_565  A
O217       Cd218   2.045   1_546  S
Cd218       O220   2.175   1_565  S
O219        C226   1.275       .  A
C221        O225   1.275       .  A
C222        C580   1.492       .  S
C224        C491   1.503       .  S
C226        C283   1.491   1_545  S
C227        O228   1.278       .  A
N229        C234   1.342       .  A
N229        C233   1.348       .  A
N229        H261   1.043       .  S
N230        C237   1.358       .  A
N230        C238   1.348       .  A
N231        C236   1.355       .  A
N231        C235   1.354       .  A
N231        H262   1.042       .  S
N232        C239   1.356       .  A
N232        C240   1.352       .  A
C233        C241   1.384       .  A
C233        C249   1.400       .  A
C234        C250   1.407       .  A
C234        C242   1.392       .  A
C235        C243   1.388   1_554  A
C235        C252   1.428       .  A
C236        C251   1.432       .  A
C236        C244   1.389   1_554  A
C237        C249   1.400       .  A
C237        C245   1.378   1_554  A
C238        C252   1.413       .  A
C238        C246   1.378   1_554  A
C239        C247   1.381       .  A
C239        C250   1.403       .  A
C240        C248   1.384       .  A
C240        C251   1.424       .  A
C241        C242   1.374       .  A
C241        H253   1.083       .  S
C242        H254   1.081       .  S
C243        C244   1.403       .  A
C243        H255   1.082   1_545  S
C244        H256   1.081       .  S
C245        C246   1.362       .  A
C245        H257   1.080       .  S
C246        H258   1.070       .  S
C247        C248   1.368       .  A
C247        H259   1.083       .  S
C248        H260   1.075       .  S
C250        C460   1.488       .  S
C251        C503   1.523   1_554  S
N263        C268   1.343       .  A
N263        C267   1.346       .  A
N263        H295   1.046   1_565  S
N264        C271   1.360   1_565  A
N264        C272   1.351   1_565  A
N265        C270   1.352       .  A
N265        C269   1.351       .  A
N265        H296   1.049       .  S
N266        C273   1.359   1_545  A
N266        C274   1.357   1_545  A
C267        C275   1.383       .  A
C267        C283   1.401       .  A
C268        C284   1.407       .  A
C268        C276   1.386       .  A
C269        C277   1.391       .  A
C269        C286   1.428       .  A
C270        C285   1.424       .  A
C270        C278   1.388       .  A
C271        C283   1.409   1_545  A
C271        C279   1.381       .  A
C272        C286   1.421       .  A
C272        C280   1.379       .  A
C273        C281   1.393       .  A
C273        C284   1.406       .  A
C274        C282   1.376       .  A
C274        C285   1.410   1_565  A
C275        C276   1.368       .  A
C275        H287   1.079       .  S
C276        H288   1.079       .  S
C277        C278   1.406       .  A
C277        H289   1.082   1_445  S
C278        H290   1.082   1_445  S
C279        C280   1.374       .  A
C279        H291   1.083       .  S
C280        H292   1.070       .  S
C281        C282   1.362       .  A
C281        H293   1.083       .  S
C282        H294   1.083       .  S
C285        C440   1.508       .  S
C286        C520   1.517   1_545  S
N297        C302   1.342       .  A
N297        C301   1.345       .  A
N297        H329   1.044   1_655  S
N298        C305   1.353       .  A
N298        C306   1.345   1_655  A
N299        C304   1.351       .  A
N299        C303   1.359       .  A
N299        H330   1.046       .  S
N300        C307   1.361       .  A
N300        C308   1.352       .  A
C301        C309   1.379       .  A
C301        C317   1.396       .  A
C302        C318   1.402       .  A
C302        C310   1.387       .  A
C303        C311   1.385   1_455  A
C303        C320   1.425       .  A
C304        C319   1.430       .  A
C304        C312   1.391   1_455  A
C305        C317   1.403       .  A
C305        C313   1.383   1_655  A
C306        C320   1.409       .  A
C306        C314   1.379       .  A
C307        C315   1.382       .  A
C307        C318   1.421   1_455  A
C308        C316   1.395       .  A
C308        C319   1.434       .  A
C309        C310   1.382       .  A
C309        H321   1.079       .  S
C310        H322   1.082       .  S
C311        C312   1.401       .  A
C311        H323   1.082   1_554  S
C312        H324   1.082       .  S
C313        C314   1.369       .  A
C313        H325   1.081       .  S
C314        H326   1.067       .  S
C315        C316   1.383       .  A
C315        H327   1.082       .  S
C316        H328   1.083       .  S
C317        C437   1.486       .  S
C318        C419   1.498       .  S
C319        C463   1.506       .  S
C320        C523   1.521   1_455  S
N331        C336   1.345       .  A
N331        C335   1.349       .  A
N331        H363   1.044       .  S
N332        C339   1.357       .  A
N332        C340   1.349       .  A
N333        C338   1.351       .  A
N333        C337   1.350       .  A
N333        H364   1.044       .  S
N334        C341   1.356       .  A
N334        C342   1.356       .  A
C335        C343   1.384       .  A
C335        C351   1.405       .  A
C336        C352   1.409       .  A
C336        C344   1.385       .  A
C337        C345   1.390       .  A
C337        C354   1.427       .  A
C338        C353   1.425       .  A
C338        C346   1.388       .  A
C339        C351   1.405       .  A
C339        C347   1.381       .  A
C340        C354   1.420       .  A
C340        C348   1.382       .  A
C341        C349   1.394       .  A
C341        C352   1.404       .  A
C342        C350   1.377       .  A
C342        C353   1.407       .  A
C343        C344   1.368       .  A
C343        H355   1.079       .  S
C344        H356   1.078       .  S
C345        C346   1.407       .  A
C345        H357   1.082       .  S
C346        H358   1.082       .  S
C347        C348   1.375       .  A
C347        H359   1.082       .  S
C348        H360   1.073       .  S
C349        C350   1.362       .  A
C349        H361   1.083       .  S
C350        H362   1.083       .  S
C351        C438   1.491       .  S
C354        C420   1.512       .  S
N365        C370   1.344       .  A
N365        C369   1.348       .  A
N365        H397   1.046       .  S
N366        C373   1.352       .  A
N366        C374   1.340       .  A
N367        C372   1.351       .  A
N367        C371   1.357       .  A
N367        H398   1.044       .  S
N368        C375   1.359       .  A
N368        C376   1.352       .  A
C369        C377   1.378       .  A
C369        C385   1.402       .  A
C370        C386   1.411       .  A
C370        C378   1.390       .  A
C371        C379   1.387       .  A
C371        C388   1.426       .  A
C372        C387   1.430       .  A
C372        C380   1.391       .  A
C373        C385   1.403       .  A
C373        C381   1.383       .  A
C374        C388   1.407       .  A
C374        C382   1.383       .  A
C375        C383   1.384       .  A
C375        C386   1.420       .  A
C376        C384   1.391       .  A
C376        C387   1.428       .  A
C377        C378   1.380       .  A
C377        H389   1.079       .  S
C378        H390   1.082       .  S
C379        C380   1.402       .  A
C379        H391   1.082       .  S
C380        H392   1.082       .  S
C381        C382   1.378       .  A
C381        H393   1.082       .  S
C382        H394   1.074       .  S
C383        C384   1.378       .  A
C383        H395   1.080       .  S
C384        H396   1.083       .  S
C385        C415   1.493       .  S
C386        C461   1.502       .  S
O399        C415   1.275       .  A
O399       Zn405   2.035       .  S
C400        O416   1.275       .  A
C400        O413   1.288       .  A
O401        C414   1.269       .  A
O401       Cd408   2.056       .  S
O402        C420   1.289       .  A
O402       Cd411   2.189       .  S
O403        C417   1.274       .  A
O403       Cd407   2.073   1_455  S
O404        C415   1.274       .  A
O404       Cd407   2.084       .  S
Zn405       O416   1.964       .  S
Zn405       O418   1.973       .  S
Zn405       O410   1.880       .  S
O406        C417   1.276   1_655  A
O406       Cd411   2.152   1_655  S
Cd407       O409   2.076       .  S
Cd407       O410   1.951       .  S
Cd408       O412   2.103       .  S
Cd408       O421   2.041   1_655  S
Cd408       O410   1.946       .  S
O409        C419   1.270       .  A
O410       Cd411   2.039   1_655  S
Cd411       O413   2.165   1_455  S
O412        C419   1.280       .  A
C414        O418   1.269       .  A
C417        C547   1.513   1_455  S
C420        O421   1.274       .  A
O422        C438   1.272       .  A
O422       Zn428   2.039       .  S
C423        O439   1.277       .  A
C423        O436   1.283       .  A
O424        C437   1.272       .  A
O424       Cd431   2.054   1_655  S
O425        C443   1.286       .  A
O425       Cd434   2.157       .  S
O426        C440   1.276   1_565  A
O426       Cd430   2.014       .  S
O427        C438   1.269       .  A
O427       Cd430   2.028       .  S
Zn428       O439   2.009   1_455  S
Zn428       O441   2.044   1_455  S
Zn428       O433   1.907       .  S
O429        C440   1.292       .  A
O429       Cd434   2.189   1_455  S
Cd430       O432   2.058   1_565  S
Cd430       O433   1.937       .  S
Cd431       O435   2.083       .  S
Cd431       O444   2.023   1_565  S
Cd431       O433   1.933       .  S
O432        C442   1.269   1_545  A
O433       Cd434   2.033   1_465  S
Cd434       O436   2.177   1_545  S
O435        C442   1.278       .  A
C437        O441   1.274       .  A
C442        C489   1.490   1_565  S
C443        C548   1.499       .  S
C443        O444   1.277   1_655  A
O445        C461   1.274       .  A
O445       Zn451   2.032       .  S
C446        O462   1.280       .  A
C446        O459   1.289       .  A
O447        C460   1.270       .  A
O447       Cd454   2.042       .  S
O448        C466   1.287       .  A
O448       Cd457   2.167       .  S
O449        C463   1.271   1_655  A
O449       Cd453   1.994       .  S
O450        C461   1.275       .  A
O450       Cd453   2.064       .  S
Zn451       O462   1.986   1_554  S
Zn451       O464   1.999       .  S
Zn451       O456   1.880       .  S
O452        C463   1.294       .  A
O452       Cd457   2.197   1_554  S
Cd453       O455   2.059   1_655  S
Cd453       O456   1.923       .  S
Cd454       O458   2.013       .  S
Cd454       O467   2.030   1_655  S
Cd454       O456   1.950       .  S
O455        C465   1.271       .  A
O456       Cd457   2.003   1_654  S
Cd457       O459   2.182   1_455  S
O458        C465   1.266   1_655  A
C460        O464   1.270       .  A
C465        C546   1.475       .  S
C466        C582   1.502       .  S
C466        O467   1.276   1_556  A
N468        C473   1.347       .  A
N468        C472   1.340       .  A
N468        H500   1.047   1_545  S
N469        C476   1.357   1_565  A
N469        C477   1.355   1_565  A
N470        C475   1.349       .  A
N470        C474   1.349       .  A
N470        H501   1.045       .  S
N471        C478   1.358   1_545  A
N471        C479   1.349   1_545  A
C472        C480   1.389       .  A
C472        C488   1.406   1_545  A
C473        C489   1.394       .  A
C473        C481   1.379       .  A
C474        C482   1.388   1_565  A
C474        C491   1.420       .  A
C475        C490   1.424       .  A
C475        C483   1.391   1_565  A
C476        C488   1.402   1_545  A
C476        C484   1.392       .  A
C477        C491   1.405   1_545  A
C477        C485   1.375       .  A
C478        C486   1.380       .  A
C478        C489   1.405   1_565  A
C479        C487   1.381       .  A
C479        C490   1.417       .  A
C480        C481   1.366       .  A
C480        H492   1.079       .  S
C481        H493   1.078       .  S
C482        C483   1.406       .  A
C482        H494   1.082       .  S
C483        H495   1.082       .  S
C484        C485   1.363       .  A
C484        H496   1.083       .  S
C485        H497   1.083       .  S
C486        C487   1.376       .  A
C486        H498   1.083       .  S
C487        H499   1.073       .  S
C488        C522   1.486       .  S
O502        C518   1.270       .  A
O502       Zn508   2.034   1_556  S
C503        O519   1.279       .  A
C503        O516   1.290       .  A
O504        C517   1.270       .  A
O504       Cd511   2.088       .  S
O505        C523   1.290       .  A
O505       Cd514   2.209   1_554  S
O506        C520   1.274       .  A
O506       Cd510   2.043   1_565  S
O507        C518   1.270       .  A
O507       Cd510   2.037       .  S
Zn508       O519   1.999   1_454  S
Zn508       O521   1.994       .  S
Zn508       O513   1.898       .  S
O509        C520   1.290   1_545  A
O509       Cd514   2.206   1_445  S
Cd510       O512   2.062   1_556  S
Cd510       O513   1.952   1_556  S
Cd511       O515   2.039   1_545  S
Cd511       O524   2.047   1_445  S
Cd511       O513   1.951       .  S
O512        C522   1.266   1_545  A
O513       Cd514   2.015   1_444  S
Cd514       O516   2.191   1_565  S
O515        C522   1.269       .  A
C517        C545   1.493       .  S
C517        O521   1.270       .  A
C518        C579   1.491       .  S
C523        O524   1.274       .  A
N525        C530   1.344       .  A
N525        C529   1.348       .  A
N525        H557   1.040   1_455  S
N526        C533   1.357   1_655  A
N526        C534   1.357   1_655  A
N527        C532   1.352       .  A
N527        C531   1.351       .  A
N527        H558   1.033       .  S
N528        C535   1.357       .  A
N528        C536   1.352   1_455  A
C529        C537   1.384       .  A
C529        C545   1.407       .  A
C530        C546   1.402       .  A
C530        C538   1.385       .  A
C531        C539   1.387       .  A
C531        C548   1.423       .  A
C532        C547   1.429       .  A
C532        C540   1.391       .  A
C533        C545   1.407       .  A
C533        C541   1.396       .  A
C534        C548   1.407   1_455  A
C534        C542   1.376       .  A
C535        C543   1.380   1_455  A
C535        C546   1.402       .  A
C536        C544   1.376       .  A
C536        C547   1.418       .  A
C537        C538   1.371       .  A
C537        H549   1.080       .  S
C538        H550   1.079       .  S
C539        C540   1.405       .  A
C539        H551   1.081   1_655  S
C540        H552   1.081   1_655  S
C541        C542   1.363       .  A
C541        H553   1.083       .  S
C542        H554   1.083       .  S
C543        C544   1.352       .  A
C543        H555   1.080       .  S
C544        H556   1.063       .  S
N559        C564   1.347   1_556  A
N559        C563   1.344   1_556  A
N559        H591   1.043       .  S
N560        C567   1.357   1_556  A
N560        C568   1.358   1_556  A
N561        C566   1.351       .  A
N561        C565   1.351       .  A
N561        H592   1.042       .  S
N562        C569   1.355       .  A
N562        C570   1.345       .  A
C563        C571   1.387       .  A
C563        C579   1.405   1_554  A
C564        C580   1.403   1_554  A
C564        C572   1.383       .  A
C565        C573   1.388   1_556  A
C565        C582   1.423       .  A
C566        C581   1.427       .  A
C566        C574   1.391   1_556  A
C567        C579   1.409   1_554  A
C567        C575   1.395       .  A
C568        C582   1.409   1_554  A
C568        C576   1.378       .  A
C569        C577   1.381       .  A
C569        C580   1.406       .  A
C570        C578   1.385       .  A
C570        C581   1.415       .  A
C571        C572   1.369       .  A
C571        H583   1.080       .  S
C572        H584   1.079       .  S
C573        C574   1.407       .  A
C573        H585   1.082       .  S
C574        H586   1.082       .  S
C575        C576   1.361       .  A
C575        H587   1.083       .  S
C576        H588   1.083       .  S
C577        C578   1.381       .  A
C577        H589   1.082       .  S
C578        H590   1.077       .  S
