geometry optimzed in LAMMPS
_audit_creation_date              2020-11-30 
_audit_creation_method            'lammps2cif' 
_symmetry_space_group_name_H-M    'P1' 
_symmetry_Int_Tables_number       1 
_symmetry_cell_setting            triclinic 
loop_ 
_symmetry_equiv_pos_as_xyz 
  x,y,z 
_cell_length_a                    66.84362125 
_cell_length_b                    66.62548397691441 
_cell_length_c                    92.3916394238145 
_cell_angle_alpha                 89.97768087870628 
_cell_angle_beta                  89.91518445846215 
_cell_angle_gamma                 122.05614009470136 
loop_ 
_atom_site_label 
_atom_site_type_symbol 
_atom_site_fract_x 
_atom_site_fract_y 
_atom_site_fract_z 
_atom_site_charge 
C1          C  0.82319104  0.35315142  0.64974979     0.87000
C2          C  0.83124091  0.35126230  0.66480261    -0.53300
C3          C  0.81841014  0.35281873  0.67565128     0.09900
C4          C  0.79858075  0.35668658  0.67045626     0.20900
C5          C  0.79648860  0.33402376  0.64946987    -0.54000
C6          C  0.78308716  0.33622682  0.65986523     0.10000
C7          C  0.82336205  0.37655012  0.64967780    -0.53500
C8          C  0.81074381  0.37855578  0.66059352     0.10600
H9          H  0.84564112  0.34851056  0.66673884     0.15100
H10         H  0.78888991  0.35894767  0.67935539     0.00800
H11         H  0.78863156  0.32063770  0.64114355     0.15400
H12         H  0.83157455  0.38984556  0.64124702     0.15200
C13         C  0.81821442  0.35888347  0.80983640     0.87000
C14         C  0.81406396  0.37959926  0.80994357    -0.53300
C15         C  0.79971126  0.37896646  0.79912344     0.09900
C16         C  0.79003929  0.35685738  0.78939154     0.20900
C17         C  0.79275880  0.33726944  0.81076253    -0.54000
C18         C  0.77833035  0.33591137  0.79999950     0.10000
C19         C  0.82676202  0.35878108  0.79440494    -0.53500
C20         C  0.81207922  0.35752648  0.78361611     0.10600
H21         H  0.82039564  0.39290363  0.81836309     0.15100
H22         H  0.77788423  0.35538864  0.78074398     0.00800
H23         H  0.78616982  0.32464019  0.81963787     0.15400
H24         H  0.84336684  0.36004192  0.79229291     0.15200
C25         C  0.72499953  0.50357415  0.65779905     0.87000
C26         C  0.72754030  0.51476584  0.67274459    -0.53300
C27         C  0.72484855  0.50027906  0.68402743     0.09900
C28         C  0.71969147  0.47577796  0.67946396     0.20900
C29         C  0.74259108  0.49500212  0.65786175    -0.54000
C30         C  0.74002715  0.48035019  0.66923869     0.10000
C31         C  0.70106927  0.47987831  0.65818502    -0.53500
C32         C  0.69805705  0.46548876  0.66948867     0.10600
H33         H  0.73095250  0.53247658  0.67426308     0.15100
H34         H  0.71710408  0.46472503  0.68905498     0.00800
H35         H  0.75457689  0.49850605  0.64893701     0.15400
H36         H  0.68845832  0.47360324  0.64935535     0.15200
C37         C  0.71255693  0.49874164  0.81869405     0.87000
C38         C  0.69277335  0.47259939  0.82088018    -0.53300
C39         C  0.69241475  0.45759533  0.81081317     0.09900
C40         C  0.71269049  0.46969244  0.79970157     0.20900
C41         C  0.73510348  0.49759627  0.81879715    -0.54000
C42         C  0.73522432  0.48242570  0.80895549     0.10000
C43         C  0.70989598  0.50436959  0.80291595    -0.53500
C44         C  0.71069508  0.48972619  0.79273668     0.10600
H45         H  0.68016542  0.46621822  0.82973858     0.15100
H46         H  0.71291351  0.45707045  0.79202201     0.00800
H47         H  0.74932992  0.50694705  0.82644766     0.15400
H48         H  0.70806536  0.51913501  0.80011211     0.15200
C49         C  0.56520503  0.24973446  0.65014781     0.87000
C50         C  0.56048869  0.23925592  0.66571489    -0.53300
C51         C  0.57741071  0.25357735  0.67566555     0.09900
C52         C  0.59808264  0.27644119  0.66891043     0.20900
C53         C  0.56889344  0.27445873  0.65253508    -0.54000
C54         C  0.58654386  0.28899696  0.66199412     0.10000
C55         C  0.58973644  0.25396937  0.64677999    -0.53500
C56         C  0.60680019  0.26820492  0.65626948     0.10600
H57         H  0.54578279  0.22232626  0.66907574     0.15100
H58         H  0.61268440  0.28747671  0.67648162     0.00800
H59         H  0.55753401  0.27922773  0.64730299     0.15400
H60         H  0.59346353  0.24664788  0.63739150     0.15200
C61         C  0.56744242  0.23912179  0.81171864     0.87000
C62         C  0.58788653  0.23524696  0.80962671    -0.53300
C63         C  0.60482121  0.24981935  0.79989063     0.09900
C64         C  0.59806317  0.26593302  0.79184712     0.20900
C65         C  0.57871601  0.26595688  0.81381976    -0.54000
C66         C  0.59452266  0.28021187  0.80353532     0.10000
C67         C  0.55690448  0.23502335  0.79619148    -0.53500
C68         C  0.57323065  0.24883640  0.78578092     0.10600
H69         H  0.58782814  0.22096301  0.81520677     0.15100
H70         H  0.61037163  0.27734488  0.78330000     0.00800
H71         H  0.57442685  0.27300106  0.82307755     0.15400
H72         H  0.53880724  0.22295297  0.79316697     0.15200
In73       In  0.49210302  0.15608504  0.52707528     1.36900
C74         C  0.52485180  0.15847458  0.50958531     0.78100
O75         O  0.48549580  0.12100363  0.53392041    -0.60400
O76         O  0.45826412  0.12142945  0.52248457    -0.51300
C77         C  0.49660771  0.16959004  0.55463837     0.70700
O78         O  0.51290275  0.16995419  0.54753335    -0.46100
C79         C  0.48578801  0.18748131  0.51349739     0.75400
O80         O  0.52902551  0.16538286  0.52257213    -0.58000
O81         O  0.46907642  0.16634502  0.51559917    -0.48100
O82         O  0.50399839  0.15084936  0.50557118    -0.54400
C83         C  0.46539911  0.10913127  0.52821593     0.85600
O84         O  0.47775950  0.16219758  0.54763640    -0.56300
O85         O  0.50526940  0.19237368  0.51874566    -0.59600
In86       In  0.49536859  0.35691948  0.44344001     1.36900
C87         C  0.53160714  0.38893963  0.45937845     0.78100
O88         O  0.48635825  0.38404304  0.43887483    -0.60400
O89         O  0.46062216  0.35241418  0.44951882    -0.51300
C90         C  0.49877102  0.35226072  0.41493806     0.70700
O91         O  0.51327334  0.37032097  0.42203108    -0.46100
C92         C  0.48716530  0.31735214  0.45611792     0.75400
O93         O  0.53410660  0.38037730  0.44785084    -0.58000
O94         O  0.47127943  0.32197511  0.45456986    -0.48100
O95         O  0.51036852  0.38057042  0.46290165    -0.54400
C96         C  0.46620191  0.37241194  0.44461201     0.85600
O97         O  0.48232849  0.33629628  0.42252224    -0.56300
O98         O  0.50696266  0.33295595  0.45108438    -0.59600
In99       In  0.68911601  0.15735451  0.44045959     1.36900
C100        C  0.65200920  0.15408989  0.45314343     0.78100
O101        O  0.66707947  0.11913253  0.43389909    -0.60400
O102        O  0.69328907  0.12856568  0.44977202    -0.51300
C103        C  0.69871509  0.17302266  0.41334220     0.70700
O104        O  0.68533013  0.17573826  0.42156018    -0.46100
C105        C  0.72654576  0.19280946  0.45390487     0.75400
O106        O  0.65508879  0.15603963  0.43962287    -0.58000
O107        O  0.72671007  0.17575054  0.44814499    -0.48100
O108        O  0.66756199  0.15287436  0.46012985    -0.54400
C109        C  0.67692995  0.11219027  0.44238510     0.85600
O110        O  0.70720684  0.16192359  0.41898721    -0.56300
O111        O  0.70722800  0.19163456  0.45264605    -0.59600
In112      In  0.89885341  0.36184437  0.52326045     1.36900
C113        C  0.90027355  0.39654356  0.50839909     0.78100
O114        O  0.93723615  0.38852863  0.52639070    -0.60400
O115        O  0.92754469  0.35357851  0.52148949    -0.51300
C116        C  0.88464793  0.35476747  0.55059513     0.70700
O117        O  0.88179394  0.36777753  0.54207362    -0.46100
C118        C  0.86410763  0.32467003  0.50946770     0.75400
O119        O  0.90096721  0.39633105  0.52201434    -0.58000
O120        O  0.88557033  0.33258964  0.50679731    -0.48100
O121        O  0.89935396  0.37911168  0.50236511    -0.54400
C122        C  0.94414172  0.37455345  0.52402666     0.85600
O123        O  0.89481733  0.34513079  0.54510244    -0.56300
O124        O  0.86065966  0.33525757  0.51950208    -0.59600
In125      In  0.90122143  0.56085296  0.43652188     1.36900
C126        C  0.94789601  0.59070769  0.43358130     0.78100
O127        O  0.91312863  0.54882513  0.45557542    -0.60400
O128        O  0.89094535  0.52334096  0.43994690    -0.51300
C129        C  0.87115307  0.56734864  0.45208818     0.70700
O130        O  0.88861772  0.58411480  0.44549917    -0.46100
C131        C  0.88345848  0.55209281  0.40971794     0.75400
O132        O  0.93580769  0.59380617  0.44277910    -0.58000
O133        O  0.88566033  0.53748119  0.41709503    -0.48100
O134        O  0.93584742  0.57315583  0.42544892    -0.54400
C135        C  0.90218095  0.52743934  0.45164305     0.85600
O136        O  0.86898692  0.54755326  0.45041162    -0.56300
O137        O  0.89024751  0.57134551  0.41620495    -0.59600
In138      In  0.70603817  0.55761398  0.52872547     1.36900
C139        C  0.66975580  0.52223786  0.51434768     0.78100
O140        O  0.68178608  0.56771838  0.53833366    -0.60400
O141        O  0.70662694  0.59098297  0.52286087    -0.51300
C142        C  0.71672784  0.55324970  0.55607432     0.70700
O143        O  0.69883605  0.53738003  0.54944138    -0.46100
C144        C  0.74270340  0.56403759  0.51277775     0.75400
O145        O  0.67777304  0.51927829  0.52595025    -0.58000
O146        O  0.74026024  0.58088906  0.51639639    -0.48100
O147        O  0.68057531  0.54341115  0.50999444    -0.54400
C148        C  0.68947084  0.58633058  0.53098454     0.85600
O149        O  0.72942086  0.57171422  0.54864872    -0.56300
O150        O  0.72670802  0.54422557  0.51761307    -0.59600
In151      In  0.16576701  0.48344154  0.52624218     1.36900
C152        C  0.16445003  0.51776407  0.51177381     0.78100
O153        O  0.20097527  0.49917918  0.51558922    -0.60400
O154        O  0.17844149  0.46192126  0.51495749    -0.51300
C155        C  0.17853085  0.48836728  0.55409986     0.70700
O156        O  0.17527072  0.50281734  0.54734530    -0.46100
C157        C  0.12011259  0.44986592  0.52667360     0.75400
O158        O  0.17839956  0.52177227  0.52209384    -0.58000
O159        O  0.13437543  0.45001973  0.51764153    -0.48100
O160        O  0.15116104  0.49606060  0.50894448    -0.54400
C161        C  0.19786901  0.47987402  0.51117367     0.85600
O162        O  0.17532581  0.47119561  0.54647817    -0.56300
O163        O  0.12947937  0.46644598  0.53580024    -0.59600
In164      In  0.37129798  0.49285202  0.44371138     1.36900
C165        C  0.33377476  0.48939859  0.45639978     0.78100
O166        O  0.39472261  0.50381442  0.46321420    -0.60400
O167        O  0.40130395  0.52985720  0.44758282    -0.51300
C168        C  0.38127536  0.45912951  0.44392213     0.70700
O169        O  0.36620246  0.45879889  0.45230596    -0.46100
C170        C  0.36687243  0.50102899  0.41601425     0.75400
O171        O  0.33362352  0.47172866  0.45138176    -0.58000
O172        O  0.38482885  0.51459285  0.42348763    -0.48100
O173        O  0.35305030  0.50877210  0.45474962    -0.54400
C174        C  0.40750790  0.52515365  0.45934248     0.85600
O175        O  0.39043675  0.47623255  0.43515135    -0.56300
O176        O  0.35121179  0.48288488  0.42268344    -0.59600
In177      In  0.17146790  0.68142063  0.43493351     1.36900
C178        C  0.20385077  0.72164441  0.44788107     0.78100
O179        O  0.16533071  0.66373202  0.45665297    -0.60400
O180        O  0.17609449  0.65097335  0.43923549    -0.51300
C181        C  0.12523976  0.66500012  0.43348165     0.70700
O182        O  0.14016514  0.68505326  0.43856772    -0.46100
C183        C  0.18439971  0.68663438  0.40707481     0.75400
O184        O  0.18257648  0.71544850  0.44653825    -0.58000
O185        O  0.18672641  0.67346367  0.41576170    -0.48100
O186        O  0.20878895  0.70773587  0.44199824    -0.54400
C187        C  0.17029738  0.64892671  0.45237371     0.85600
O188        O  0.13418590  0.65361994  0.42897389    -0.56300
O189        O  0.17589215  0.69771011  0.41279208    -0.59600
In190      In  0.37056066  0.88575302  0.52259961     1.36900
C191        C  0.40338521  0.88603720  0.50610910     0.78100
O192        O  0.34795618  0.84985884  0.51285558    -0.60400
O193        O  0.33484666  0.87253030  0.51262011    -0.51300
C194        C  0.36394266  0.87235346  0.55025419     0.70700
O195        O  0.38116900  0.87551726  0.54281278    -0.46100
C196        C  0.38574759  0.93148286  0.52432457     0.75400
O197        O  0.39643630  0.87504327  0.51795225    -0.58000
O198        O  0.36819528  0.91711823  0.51677151    -0.48100
O199        O  0.39363725  0.89720010  0.50269872    -0.54400
C200        C  0.33151291  0.85268227  0.50913983     0.85600
O201        O  0.34993336  0.87628612  0.54356489    -0.56300
O202        O  0.39548982  0.92234079  0.53091366    -0.59600
In203      In  0.57516480  0.69052571  0.53303566     1.36900
C204        C  0.54109555  0.65576891  0.51750701     0.78100
O205        O  0.56137078  0.71083526  0.52200740    -0.60400
O206        O  0.59822388  0.72809905  0.52480231    -0.51300
C207        C  0.56832976  0.69571050  0.56083687     0.70700
O208        O  0.55482656  0.67722089  0.55371972    -0.46100
C209        C  0.60566606  0.67623145  0.53322400     0.75400
O210        O  0.53709824  0.66346611  0.52891622    -0.58000
O211        O  0.60732702  0.69152789  0.52440137    -0.48100
O212        O  0.56254559  0.66605718  0.51397142    -0.54400
C213        C  0.58126218  0.72938690  0.51998363     0.85600
O214        O  0.58559714  0.71171235  0.55371365    -0.56300
O215        O  0.58921990  0.66936011  0.54230200    -0.59600
In216      In  0.57638629  0.88861695  0.44540941     1.36900
C217        C  0.53800143  0.88602120  0.45613264     0.78100
O218        O  0.56733374  0.85218183  0.45192364    -0.60400
O219        O  0.59934872  0.88110972  0.45974644    -0.51300
C220        C  0.56914362  0.87532346  0.41754322     0.70700
O221        O  0.55310679  0.87240662  0.42609767    -0.46100
C222        C  0.60621242  0.93533299  0.44853475     0.75400
O223        O  0.54709050  0.89578352  0.44418093    -0.58000
O224        O  0.60603256  0.92433403  0.43738462    -0.48100
O225        O  0.54818931  0.87699291  0.46233052    -0.54400
C226        C  0.58519355  0.85895113  0.45975534     0.85600
O227        O  0.58930990  0.88497539  0.42332104    -0.56300
O228        O  0.59277225  0.92211745  0.45846718    -0.59600
C229        C  0.36097595  0.80547887  0.81008164     0.87000
C230        C  0.35792386  0.81321455  0.79478983    -0.53300
C231        C  0.35912311  0.80034545  0.78361125     0.09900
C232        C  0.36240462  0.78037474  0.78883553     0.20900
C233        C  0.34104971  0.77923272  0.81046206    -0.54000
C234        C  0.34213571  0.76595421  0.79973823     0.10000
C235        C  0.38386579  0.80513959  0.80905855    -0.53500
C236        C  0.38522449  0.79219820  0.79790029     0.10600
H237        H  0.35298032  0.82590281  0.79262309     0.15100
H238        H  0.36234548  0.77023362  0.77963313     0.00800
H239        H  0.32790199  0.77141530  0.81901701     0.15400
H240        H  0.39688112  0.81302018  0.81758926     0.15200
C241        C  0.35748314  0.80796274  0.64988234     0.87000
C242        C  0.37949603  0.80576692  0.65119282    -0.53300
C243        C  0.37858922  0.79103873  0.66207143     0.09900
C244        C  0.35570558  0.78106467  0.67107731     0.20900
C245        C  0.33701700  0.78177060  0.64889214    -0.54000
C246        C  0.33597999  0.76769253  0.65993051     0.10000
C247        C  0.35528494  0.81649779  0.66474908    -0.53500
C248        C  0.35476573  0.80287522  0.67586152     0.10600
H249        H  0.39421875  0.81469631  0.64384164     0.15100
H250        H  0.35343236  0.76918541  0.68004649     0.00800
H251        H  0.32534624  0.77447774  0.63963543     0.15400
H252        H  0.35535234  0.83267170  0.66641153     0.15200
C253        C  0.51240916  0.71041037  0.81901731     0.87000
C254        C  0.52133115  0.71589086  0.80334097    -0.53300
C255        C  0.50471058  0.71260210  0.79329288     0.09900
C256        C  0.48069837  0.70536539  0.80032803     0.20900
C257        C  0.50242190  0.72627220  0.82194821    -0.54000
C258        C  0.48654173  0.72418100  0.81197185     0.10000
C259        C  0.48985074  0.68529032  0.81849303    -0.53500
C260        C  0.47297829  0.68253796  0.80894360     0.10600
H261        H  0.53936197  0.72163266  0.80050059     0.15100
H262        H  0.46693605  0.70331523  0.79276057     0.00800
H263        H  0.50709267  0.73799734  0.83117345     0.15400
H264        H  0.48697899  0.67107030  0.82553675     0.15200
C265        C  0.49987485  0.70024718  0.65837553     0.87000
C266        C  0.47605035  0.67673000  0.66079935    -0.53300
C267        C  0.46307990  0.67611902  0.67255129     0.09900
C268        C  0.47579468  0.69978005  0.68094287     0.20900
C269        C  0.49331373  0.71911259  0.65799041    -0.54000
C270        C  0.48050453  0.71883127  0.66956893     0.10000
C271        C  0.51233499  0.70347487  0.67312757    -0.53500
C272        C  0.49991663  0.70365018  0.68481069     0.10600
H273        H  0.46985717  0.66190076  0.65351755     0.15100
H274        H  0.46693172  0.70049531  0.69082697     0.00800
H275        H  0.49686212  0.73051342  0.64868415     0.15400
H276        H  0.52837357  0.70343285  0.67460505     0.15200
C277        C  0.25479162  0.55229957  0.65202706     0.87000
C278        C  0.25962091  0.57759178  0.65168580    -0.53300
C279        C  0.27399842  0.59234219  0.66224075     0.09900
C280        C  0.28145792  0.57986378  0.67310578     0.20900
C281        C  0.27892154  0.55491671  0.65311576    -0.54000
C282        C  0.29294941  0.56917317  0.66398918     0.10000
C283        C  0.24378542  0.54378152  0.66743339    -0.53500
C284        C  0.25792459  0.55825666  0.67856007     0.10600
H285        H  0.25195788  0.58342147  0.64363832     0.15100
H286        H  0.29308076  0.59167856  0.68187487     0.00800
H287        H  0.28431137  0.54586017  0.64581562     0.15400
H288        H  0.22624939  0.52864738  0.66949010     0.15200
C289        C  0.25561612  0.55123093  0.81450486     0.87000
C290        C  0.25033157  0.54160967  0.79873793    -0.53300
C291        C  0.26422268  0.55814020  0.78837162     0.09900
C292        C  0.28285733  0.58245041  0.79492532     0.20900
C293        C  0.28208043  0.56022534  0.81590289    -0.54000
C294        C  0.29631714  0.57692236  0.80609170     0.10000
C295        C  0.25387448  0.57329551  0.81364701    -0.53500
C296        C  0.26840347  0.59009596  0.80382046     0.10600
H297        H  0.23757745  0.52355830  0.79569473     0.15100
H298        H  0.29494430  0.59580879  0.78691325     0.00800
H299        H  0.28912824  0.55409138  0.82418774     0.15400
H300        H  0.24123676  0.57473910  0.82018630     0.15200
C301        C  0.56290428  0.35134108  0.31609563     0.87000
C302        C  0.55215873  0.34485048  0.30058837    -0.53300
C303        C  0.56772380  0.34674408  0.29004768     0.09900
C304        C  0.59225410  0.35424121  0.29614119     0.20900
C305        C  0.57143379  0.33414998  0.31809272    -0.54000
C306        C  0.58701053  0.33590110  0.30802292     0.10000
C307        C  0.58520439  0.37616471  0.31422787    -0.53500
C308        C  0.60092916  0.37790075  0.30409036     0.10600
H309        H  0.53398064  0.33823586  0.29791984     0.15100
H310        H  0.60486091  0.35528038  0.28789778     0.00800
H311        H  0.56547502  0.32136675  0.32687713     0.15400
H312        H  0.58779947  0.39116797  0.32042520     0.15200
C313        C  0.55406632  0.33561509  0.15430135     0.87000
C314        C  0.57942398  0.35674951  0.15185465    -0.53300
C315        C  0.59574878  0.35756422  0.16088815     0.09900
C316        C  0.58535697  0.33780251  0.17236118     0.20900
C317        C  0.55543647  0.31330051  0.15475207    -0.54000
C318        C  0.57198782  0.31436942  0.16386640     0.10000
C319        C  0.54979938  0.33929842  0.17037088    -0.53500
C320        C  0.56588940  0.33986964  0.17999228     0.10600
H321        H  0.58413254  0.37021179  0.14362415     0.15100
H322        H  0.59901630  0.33871684  0.17957205     0.00800
H323        H  0.54361729  0.29772775  0.14842048     0.15400
H324        H  0.53639467  0.34245195  0.17408115     0.15200
C325        C  0.69905688  0.23907288  0.31687915     0.87000
C326        C  0.70391189  0.23360762  0.30172551    -0.53300
C327        C  0.70178214  0.24647265  0.29115963     0.09900
C328        C  0.69513099  0.26394263  0.29663968     0.20900
C329        C  0.71568180  0.26637182  0.31868560    -0.54000
C330        C  0.71420721  0.27989397  0.30787334     0.10000
C331        C  0.67465397  0.23614406  0.31617113    -0.53500
C332        C  0.67252273  0.24934307  0.30578779     0.10600
H333        H  0.70855114  0.22055186  0.29953815     0.15100
H334        H  0.69292073  0.27276688  0.28725945     0.00800
H335        H  0.72624340  0.27392167  0.32833422     0.15400
H336        H  0.66140992  0.22751651  0.32459305     0.15200
C337        C  0.70015981  0.23484408  0.15663923     0.87000
C338        C  0.67924523  0.23847959  0.15465863    -0.53300
C339        C  0.67883298  0.25379469  0.16428307     0.09900
C340        C  0.69993226  0.26508452  0.17466842     0.20900
C341        C  0.72183653  0.26028318  0.15553679    -0.54000
C342        C  0.72192444  0.27624678  0.16478283     0.10000
C343        C  0.69914851  0.22814578  0.17266741    -0.53500
C344        C  0.69915429  0.24400196  0.18217822     0.10600
H345        H  0.66604219  0.23024468  0.14623196     0.15100
H346        H  0.69959340  0.27779546  0.18224190     0.00800
H347        H  0.73589090  0.26548973  0.14776787     0.15400
H348        H  0.69871202  0.21236315  0.17616876     0.15200
C349        C  0.81375966  0.49867604  0.30945541     0.87000
C350        C  0.82547130  0.50994939  0.29494562    -0.53300
C351        C  0.81512339  0.49552462  0.28334022     0.09900
C352        C  0.79319512  0.47099967  0.28710074     0.20900
C353        C  0.78734940  0.49029488  0.30740197    -0.54000
C354        C  0.77654272  0.47634207  0.29548645     0.10000
C355        C  0.81274291  0.47505353  0.30996414    -0.53500
C356        C  0.80125872  0.45999846  0.29869643     0.10600
H357        H  0.84078864  0.52781067  0.29393347     0.15100
H358        H  0.78551839  0.46008518  0.27727998     0.00800
H359        H  0.77682525  0.49244452  0.31536656     0.15400
H360        H  0.81821163  0.46952324  0.31945336     0.15200
C361        C  0.81094514  0.48848267  0.14937576     0.87000
C362        C  0.81335367  0.46682872  0.15090828    -0.53300
C363        C  0.80144947  0.45252824  0.16232022     0.09900
C364        C  0.78972874  0.46208688  0.17208961     0.20900
C365        C  0.78414724  0.47813702  0.15008627    -0.54000
C366        C  0.77273550  0.46456249  0.16210308     0.10000
C367        C  0.82066301  0.50126858  0.16408206    -0.53500
C368        C  0.80928165  0.48748157  0.17593164     0.10600
H369        H  0.82221223  0.46204341  0.14305808     0.15100
H370        H  0.78215204  0.45159764  0.18203406     0.00800
H371        H  0.77495886  0.48064493  0.14128456     0.15400
H372        H  0.83575602  0.51909265  0.16527799     0.15200
In373      In  0.55939034  0.88965712  0.02921679     1.36900
C374        C  0.52454417  0.88727427  0.01395836     0.78100
O375        O  0.56518857  0.92467704  0.03606918    -0.60400
O376        O  0.59269336  0.92501658  0.02445325    -0.51300
C377        C  0.55564899  0.87710259  0.05695320     0.70700
O378        O  0.53819121  0.87211621  0.04915431    -0.46100
C379        C  0.56730337  0.85924677  0.01493634     0.75400
O380        O  0.52154639  0.87822705  0.02636675    -0.58000
O381        O  0.58316374  0.88071773  0.01688155    -0.48100
O382        O  0.54541378  0.89692219  0.00930151    -0.54400
C383        C  0.58528033  0.93701306  0.03032529     0.85600
O384        O  0.57523964  0.88829865  0.05045258    -0.56300
O385        O  0.54774092  0.85351393  0.02045042    -0.59600
In386      In  0.57032838  0.69388133  0.94512771     1.36900
C387        C  0.53416011  0.65750980  0.95875870     0.78100
O388        O  0.58070336  0.66829921  0.93846662    -0.60400
O389        O  0.60207399  0.69392167  0.95415023    -0.51300
C390        C  0.56734787  0.70318349  0.91732911     0.70700
O391        O  0.54994564  0.68846919  0.92484993    -0.46100
C392        C  0.57441119  0.73222486  0.95797776     0.75400
O393        O  0.53393865  0.66149227  0.94542903    -0.58000
O394        O  0.59210892  0.73122244  0.95435956    -0.48100
O395        O  0.55287318  0.67267816  0.96514857    -0.54400
C396        C  0.59778645  0.67583681  0.94706833     0.85600
O397        O  0.58672361  0.71316889  0.92405387    -0.56300
O398        O  0.55501937  0.71360234  0.95510435    -0.59600
In399      In  0.16778736  0.68154353  0.02005567     1.36900
C400        C  0.16692331  0.64600689  0.00638573     0.78100
O401        O  0.13547312  0.67987615  0.01139728    -0.60400
O402        O  0.13234625  0.66193695  0.03097497    -0.51300
C403        C  0.18284161  0.69019874  0.04727748     0.70700
O404        O  0.17579204  0.67073275  0.04106248    -0.46100
C405        C  0.19938920  0.72026046  0.00544461     0.75400
O406        O  0.18084130  0.65706239  0.01668685    -0.58000
O407        O  0.18155268  0.71840421  0.01149855    -0.48100
O408        O  0.15365516  0.65337850  0.00297652    -0.54400
C409        C  0.12210762  0.66685509  0.02147610     0.85600
O410        O  0.18229300  0.70543566  0.03948955    -0.56300
O411        O  0.20065246  0.70216035  0.00675382    -0.59600
In412      In  0.36920766  0.89054869  0.93568646     1.36900
C413        C  0.38517305  0.93647412  0.93371785     0.78100
O414        O  0.38728667  0.89808966  0.95725917    -0.60400
O415        O  0.39635431  0.88183753  0.94098420    -0.51300
C416        C  0.32924424  0.85758868  0.94854404     0.70700
O417        O  0.33755627  0.87944750  0.94988531    -0.46100
C418        C  0.36606069  0.87854483  0.90790622     0.75400
O419        O  0.36371508  0.92099491  0.93591072    -0.58000
O420        O  0.38059690  0.87858805  0.91657805    -0.48100
O421        O  0.39823835  0.92830304  0.93206373    -0.54400
C422        C  0.39960110  0.88967833  0.95372427     0.85600
O423        O  0.34099293  0.85268351  0.94023027    -0.56300
O424        O  0.35293427  0.88476062  0.91350034    -0.59600
In425      In  0.16256781  0.47604274  0.93895212     1.36900
C426        C  0.16283147  0.51022993  0.95413900     0.78100
O427        O  0.12694910  0.46468552  0.93004566    -0.60400
O428        O  0.12885278  0.44221097  0.94541369    -0.51300
C429        C  0.17688138  0.48215632  0.91141478     0.70700
O430        O  0.17826885  0.49828127  0.91925791    -0.46100
C431        C  0.19414027  0.47048163  0.95294118     0.75400
O432        O  0.17011776  0.51278856  0.94130293    -0.58000
O433        O  0.17319242  0.45357571  0.95092749    -0.48100
O434        O  0.15569673  0.49005525  0.95939235    -0.54400
C435        C  0.11588685  0.44603554  0.93747309     0.85600
O436        O  0.16857914  0.46249544  0.91779051    -0.56300
O437        O  0.19892630  0.48981567  0.94742444    -0.59600
In438      In  0.36209752  0.48738060  0.02862293     1.36900
C439        C  0.39766591  0.52106756  0.01300617     0.78100
O440        O  0.38503476  0.47531599  0.03780962    -0.60400
O441        O  0.36034357  0.45392546  0.02179399    -0.51300
C442        C  0.35638046  0.49682056  0.05587349     0.70700
O443        O  0.37051999  0.51224450  0.04704053    -0.46100
C444        C  0.32339543  0.47970036  0.01490203     0.75400
O445        O  0.39408620  0.52365571  0.02605999    -0.58000
O446        O  0.32501796  0.46314755  0.02015694    -0.48100
O447        O  0.38301042  0.50090843  0.00789626    -0.54400
C448        C  0.37680905  0.45713169  0.03002297     0.85600
O449        O  0.34410467  0.47629098  0.05057143    -0.56300
O450        O  0.34126737  0.49999690  0.01710639    -0.59600
In451      In  0.89675790  0.55355232  0.02412936     1.36900
C452        C  0.89253350  0.51693292  0.00935445     0.78100
O453        O  0.86027781  0.54041266  0.01627376    -0.60400
O454        O  0.88612969  0.57670659  0.01302285    -0.51300
C455        C  0.88505056  0.55254384  0.05183392     0.70700
O456        O  0.88681680  0.53647714  0.04595233    -0.46100
C457        C  0.94383255  0.58185869  0.02431369     0.75400
O458        O  0.88487723  0.51498051  0.02209093    -0.58000
O459        O  0.93101193  0.58532850  0.01597559    -0.48100
O460        O  0.90160692  0.53744850  0.00410482    -0.54400
C461        C  0.86482737  0.56015789  0.01153462     0.85600
O462        O  0.88934499  0.56940063  0.04352152    -0.56300
O463        O  0.93241624  0.56460479  0.03278619    -0.59600
In464      In  0.69238983  0.55188706  0.94655173     1.36900
C465        C  0.73132616  0.55854456  0.95910960     0.78100
O466        O  0.67105766  0.53762275  0.96701326    -0.60400
O467        O  0.66480967  0.51358490  0.95013730    -0.51300
C468        C  0.67684896  0.58149011  0.94731940     0.70700
O469        O  0.69487747  0.58532931  0.95414081    -0.46100
C470        C  0.69946703  0.54796470  0.91843571     0.75400
O471        O  0.72763891  0.57508687  0.95736263    -0.58000
O472        O  0.68223400  0.53199911  0.92554124    -0.48100
O473        O  0.71537326  0.53888935  0.95412787    -0.54400
C474        C  0.65931871  0.51649785  0.96266999     0.85600
O475        O  0.66721076  0.56281978  0.93985107    -0.56300
O476        O  0.71297998  0.56637329  0.92566214    -0.59600
In477      In  0.69014603  0.16381301  0.02948390     1.36900
C478        C  0.65632044  0.16511168  0.01506817     0.78100
O479        O  0.71353491  0.19820379  0.01752016    -0.60400
O480        O  0.72520302  0.17453256  0.01906861    -0.51300
C481        C  0.69879199  0.17697385  0.05739470     0.70700
O482        O  0.68334837  0.17748321  0.04994413    -0.46100
C483        C  0.67124845  0.11688980  0.03006420     0.75400
O484        O  0.66650665  0.17783637  0.02597927    -0.58000
O485        O  0.68941788  0.13085585  0.02277424    -0.48100
O486        O  0.66365861  0.15187747  0.01140371    -0.54400
C487        C  0.72927000  0.19404827  0.01425646     0.85600
O488        O  0.71008070  0.16972455  0.05055714    -0.56300
O489        O  0.66303301  0.12711685  0.03714480    -0.59600
In490      In  0.89264418  0.35433814  0.93520159     1.36900
C491        C  0.86081709  0.31450777  0.94911840     0.78100
O492        O  0.89373245  0.37023278  0.95696260    -0.60400
O493        O  0.89102045  0.38680208  0.93823242    -0.51300
C494        C  0.93879556  0.37011389  0.93432264     0.70700
O495        O  0.92299439  0.34855002  0.93591518    -0.46100
C496        C  0.87950682  0.35061042  0.90749575     0.75400
O497        O  0.88273311  0.32311487  0.94971429    -0.58000
O498        O  0.87497447  0.36110287  0.91702569    -0.48100
O499        O  0.85519661  0.32561047  0.94070079    -0.54400
C500        C  0.89191480  0.38673040  0.95183882     0.85600
O501        O  0.93069313  0.38325435  0.93274767    -0.56300
O502        O  0.89033421  0.34116504  0.91220543    -0.59600
In503      In  0.49462530  0.16137448  0.93939520     1.36900
C504        C  0.46667400  0.11442411  0.93830224     0.78100
O505        O  0.48423611  0.17144435  0.91859098    -0.60400
O506        O  0.51455464  0.16908985  0.91858740    -0.51300
C507        C  0.48503946  0.19062254  0.95298050     0.70700
O508        O  0.46929872  0.16965804  0.94965747    -0.46100
C509        C  0.52887423  0.16612576  0.95650543     0.75400
O510        O  0.45931428  0.12721502  0.94288283    -0.58000
O511        O  0.53282084  0.17699548  0.94463726    -0.48100
O512        O  0.48773282  0.12570635  0.93399603    -0.54400
C513        C  0.50102633  0.17300675  0.91139706     0.85600
O514        O  0.50552977  0.19660914  0.94899204    -0.56300
O515        O  0.50730423  0.15341461  0.95984789    -0.59600
In516      In  0.48459059  0.34737480  0.03111265     1.36900
C517        C  0.52310546  0.38149361  0.01759144     0.78100
O518        O  0.49405357  0.32105504  0.02445473    -0.60400
O519        O  0.46209857  0.31609184  0.01658635    -0.51300
C520        C  0.48463512  0.33990464  0.05958964     0.70700
O521        O  0.50094645  0.35760071  0.05300414    -0.46100
C522        C  0.45572938  0.36346974  0.03048323     0.75400
O523        O  0.52413155  0.37020516  0.02819190    -0.58000
O524        O  0.45156689  0.34541866  0.02345134    -0.48100
O525        O  0.50245042  0.37472679  0.01362948    -0.54400
C526        C  0.47615068  0.30892213  0.01661134     0.85600
O527        O  0.46799573  0.32543462  0.05147582    -0.56300
O528        O  0.47447653  0.37302049  0.03779347    -0.59600
C529        C  0.35408749  0.56203228  0.15539300     0.87000
C530        C  0.35174521  0.55160182  0.17088334    -0.53300
C531        C  0.35441295  0.56660937  0.18197596     0.09900
C532        C  0.35837375  0.59030153  0.17660335     0.20900
C533        C  0.33506719  0.56843259  0.15574448    -0.54000
C534        C  0.33693792  0.58312636  0.16673464     0.10000
C535        C  0.37766641  0.58589981  0.15562259    -0.53500
C536        C  0.37986068  0.60074761  0.16639507     0.10600
H537        H  0.34625827  0.53358564  0.17332004     0.15100
H538        H  0.36090666  0.60211966  0.18572192     0.00800
H539        H  0.32114348  0.56177366  0.14771663     0.15400
H540        H  0.39124796  0.59111410  0.14742699     0.15200
C541        C  0.35411564  0.55632505  0.31687960     0.87000
C542        C  0.37632775  0.58174011  0.31700773    -0.53300
C543        C  0.37696746  0.59704091  0.30675172     0.09900
C544        C  0.35553006  0.58419643  0.29644602     0.20900
C545        C  0.33367656  0.56092466  0.31731571    -0.54000
C546        C  0.33428662  0.57528615  0.30657959     0.10000
C547        C  0.35370298  0.54722139  0.30165753    -0.53500
C548        C  0.35471441  0.56174509  0.29093403     0.10600
H549        H  0.39013447  0.58715372  0.32494484     0.15100
H550        H  0.35496726  0.59514702  0.28772511     0.00800
H551        H  0.32086073  0.55515715  0.32597145     0.15400
H552        H  0.35323321  0.53094685  0.29952655     0.15200
C553        C  0.25470456  0.69947477  0.14531300     0.87000
C554        C  0.25061496  0.70611079  0.16069653    -0.53300
C555        C  0.26137179  0.70118487  0.17162504     0.09900
C556        C  0.27600212  0.69101154  0.16602417     0.20900
C557        C  0.28187728  0.71403697  0.14434704    -0.54000
C558        C  0.29298874  0.70921606  0.15479482     0.10000
C559        C  0.24719805  0.67338369  0.14678001    -0.53500
C560        C  0.25841224  0.66881059  0.15731457     0.10600
H561        H  0.24146620  0.71502395  0.16310847     0.15100
H562        H  0.28525292  0.68737214  0.17461658     0.00800
H563        H  0.29162181  0.72725046  0.13602207     0.15400
H564        H  0.23371380  0.65962478  0.13994263     0.15200
C565        C  0.24697570  0.69943041  0.30654333     0.87000
C566        C  0.25101463  0.67859479  0.30761928    -0.53300
C567        C  0.26543551  0.67815254  0.29712334     0.09900
C568        C  0.27472147  0.69931102  0.28659575     0.20900
C569        C  0.27243847  0.72104893  0.30689001    -0.54000
C570        C  0.28685704  0.72116307  0.29649978     0.10000
C571        C  0.23823742  0.69833808  0.29103190    -0.53500
C572        C  0.25271463  0.69825366  0.28060772     0.10600
H573        H  0.24417224  0.66615145  0.31657796     0.15100
H574        H  0.28607695  0.69988628  0.27770271     0.00800
H575        H  0.27979764  0.73341532  0.31583373     0.15400
H576        H  0.22201178  0.69763589  0.28853196     0.15200
C577        C  0.51176558  0.81452879  0.15775147     0.87000
C578        C  0.51836341  0.82410131  0.17312826    -0.53300
C579        C  0.50416252  0.80838184  0.18347299     0.09900
C580        C  0.48422840  0.78413861  0.17746691     0.20900
C581        C  0.51132779  0.79098565  0.15794129    -0.54000
C582        C  0.49655338  0.77474015  0.16804676     0.10000
C583        C  0.48532730  0.80586748  0.15629368    -0.53500
C584        C  0.47065002  0.78967039  0.16638856     0.10600
H585        H  0.53308307  0.84176713  0.17565288     0.15100
H586        H  0.47281080  0.77146060  0.18589439     0.00800
H587        H  0.52070096  0.78688671  0.15016737     0.15400
H588        H  0.47855155  0.81130996  0.14747859     0.15200
C589        C  0.50176346  0.81851271  0.31835050     0.87000
C590        C  0.47958938  0.82022023  0.31710302    -0.53300
C591        C  0.46308517  0.80518984  0.30734859     0.09900
C592        C  0.47058051  0.78989631  0.29940207     0.20900
C593        C  0.49109393  0.79193309  0.32149626    -0.54000
C594        C  0.47525470  0.77713614  0.31148301     0.10000
C595        C  0.51129215  0.82206555  0.30277290    -0.53500
C596        C  0.49494770  0.80758137  0.29260202     0.10600
H597        H  0.47645630  0.83178159  0.32394058     0.15100
H598        H  0.45702433  0.77726271  0.29178556     0.00800
H599        H  0.49559587  0.78527322  0.33088116     0.15400
H600        H  0.52949567  0.83526936  0.30007963     0.15200
C601        C  0.52563125  0.81338319  0.22221630    -0.05000
C602        C  0.51051119  0.81868729  0.22967780     0.09200
C603        C  0.49613599  0.82432796  0.22165339    -0.02400
C604        C  0.49538223  0.82262031  0.20640551    -0.00600
C605        C  0.50808552  0.81420206  0.19917841    -0.04200
C606        C  0.52451203  0.81129188  0.20697374     0.02800
C607        C  0.50797096  0.81610389  0.24586934     0.09600
C608        C  0.48157781  0.83118099  0.22911903     0.35500
C609        C  0.54002037  0.80587248  0.19928220     0.38900
C610        C  0.51712037  0.83606024  0.25494279    -0.04600
C611        C  0.51239177  0.83327616  0.26999688     0.02600
C612        C  0.49979941  0.81032642  0.27643710    -0.04200
C613        C  0.49083112  0.79033195  0.26712720    -0.00400
C614        C  0.49466842  0.79331024  0.25201322    -0.03000
C615        C  0.53105101  0.85957001  0.24868708     0.36300
C616        C  0.47665739  0.76635522  0.27256906     0.39900
C617        C  0.51871625  0.85414101  0.27849371     0.39000
C618        C  0.48403759  0.77270906  0.24260405     0.35900
C619        C  0.54199038  0.80965888  0.23026371     0.36600
C620        C  0.48172373  0.82970498  0.19810650     0.39900
N621        N  0.52359394  0.87078127  0.28522633    -0.38200
N622        N  0.54218432  0.87832662  0.24369938    -0.39800
N623        N  0.46456832  0.74677618  0.27605275    -0.37500
N624        N  0.47538840  0.75624278  0.23516454    -0.39900
N625        N  0.47006915  0.83675802  0.23511505    -0.39700
N626        N  0.47086976  0.83537071  0.19144612    -0.37300
N627        N  0.55229264  0.80150545  0.19306621    -0.38400
N628        N  0.55511937  0.80675728  0.23666849    -0.40000
C629        C  0.35094965  0.77043853  0.29058201    -0.05000
C630        C  0.36261085  0.76450131  0.30095148     0.09200
C631        C  0.34906665  0.74447822  0.30992960    -0.02400
C632        C  0.32428769  0.73139182  0.30906944    -0.00600
C633        C  0.31287136  0.73645769  0.29810629    -0.04200
C634        C  0.32625511  0.75588208  0.28880349     0.02800
C635        C  0.38906771  0.77881646  0.30222639     0.09600
C636        C  0.36048074  0.73653646  0.31968660     0.35500
C637        C  0.31461488  0.76091243  0.27742511     0.38900
C638        C  0.40007393  0.79007404  0.31539134    -0.04600
C639        C  0.42458844  0.80002657  0.31728187     0.02600
C640        C  0.43875184  0.80107508  0.30541415    -0.04200
C641        C  0.42801541  0.79407416  0.29163817    -0.00400
C642        C  0.40330708  0.78067504  0.29038915    -0.03000
C643        C  0.38593679  0.79026959  0.32728345     0.36300
C644        C  0.44222349  0.80146442  0.27856951     0.39900
C645        C  0.43429642  0.80758758  0.33169124     0.39000
C646        C  0.39269053  0.76742262  0.27720448     0.35900
C647        C  0.36432758  0.79143124  0.28166021     0.36600
C648        C  0.31063899  0.71205958  0.31916784     0.39900
N649        N  0.44162652  0.81333445  0.34330419    -0.38200
N650        N  0.37464834  0.79023161  0.33680730    -0.39800
N651        N  0.45310641  0.80761026  0.26796451    -0.37500
N652        N  0.38427322  0.75661366  0.26675543    -0.39900
N653        N  0.36911305  0.72979152  0.32754322    -0.39700
N654        N  0.29989991  0.69673507  0.32728251    -0.37300
N655        N  0.30548295  0.76495659  0.26825587    -0.38400
N656        N  0.37504113  0.80804025  0.27443784    -0.40000
C657        C  0.40437690  0.75991266  0.17526063    -0.05000
C658        C  0.39451564  0.75460524  0.16131006     0.09200
C659        C  0.40902086  0.75874800  0.14922661    -0.02400
C660        C  0.43342699  0.76855546  0.15103575    -0.00600
C661        C  0.44406322  0.77612411  0.16494249    -0.04200
C662        C  0.42898404  0.77069215  0.17714298     0.02800
C663        C  0.36850932  0.74328768  0.15936189     0.09600
C664        C  0.39872248  0.75291798  0.13484431     0.35500
C665        C  0.43801079  0.77532633  0.19178151     0.38900
C666        C  0.35831716  0.75716605  0.15893407    -0.04600
C667        C  0.33367244  0.74621384  0.15718195     0.02600
C668        C  0.31922124  0.72133234  0.15546862    -0.04200
C669        C  0.32991731  0.70795211  0.15474555    -0.00400
C670        C  0.35415006  0.71861974  0.15752193    -0.03000
C671        C  0.37318944  0.78262629  0.16065476     0.36300
C672        C  0.31697350  0.68390876  0.14948735     0.39900
C673        C  0.32315611  0.76044417  0.15776702     0.39000
C674        C  0.36413581  0.70398833  0.15887995     0.35900
C675        C  0.38894616  0.75395235  0.18772390     0.36600
C676        C  0.44705113  0.76944696  0.13853285     0.39900
N677        N  0.31474164  0.77177476  0.15829110    -0.38200
N678        N  0.38515834  0.80293413  0.16206588    -0.39800
N679        N  0.30825199  0.66510477  0.14467589    -0.37500
N680        N  0.37155666  0.69188718  0.16026724    -0.39900
N681        N  0.39053398  0.74838678  0.12337915    -0.39700
N682        N  0.45764175  0.77014077  0.12842406    -0.37300
N683        N  0.44412125  0.77793513  0.20371787    -0.38400
N684        N  0.37654977  0.74907495  0.19761565    -0.40000
C685        C  0.27409467  0.71475097  0.21214947    -0.05000
C686        C  0.25112897  0.70337988  0.21795832     0.09200
C687        C  0.23162018  0.69346547  0.20854780    -0.02400
C688        C  0.23494584  0.69338980  0.19341836    -0.00600
C689        C  0.25803375  0.70389573  0.18749083    -0.04200
C690        C  0.27759642  0.71498900  0.19705441     0.02800
C691        C  0.24775464  0.70030484  0.23404829     0.09600
C692        C  0.20803425  0.68266094  0.21453218     0.35500
C693        C  0.30156919  0.72637273  0.19172808     0.38900
C694        C  0.24710417  0.71748232  0.24261040    -0.04600
C695        C  0.24735030  0.71618171  0.25789248     0.02600
C696        C  0.24835347  0.69769304  0.26469389    -0.04200
C697        C  0.24745510  0.67971804  0.25606641    -0.00400
C698        C  0.24721279  0.68105534  0.24084968    -0.03000
C699        C  0.24690437  0.73686536  0.23564029     0.36300
C700        C  0.24667123  0.65959647  0.26272889     0.39900
C701        C  0.24768202  0.73448725  0.26655964     0.39000
C702        C  0.24703718  0.66276575  0.23224566     0.35900
C703        C  0.29422834  0.72594637  0.22185786     0.36600
C704        C  0.21438759  0.67992200  0.18427225     0.39900
N705        N  0.24792032  0.74906121  0.27350830    -0.38200
N706        N  0.24669787  0.75229060  0.23003692    -0.39800
N707        N  0.24593993  0.64323193  0.26761911    -0.37500
N708        N  0.24690413  0.64780741  0.22580978    -0.39900
N709        N  0.18923468  0.67418304  0.21932603    -0.39700
N710        N  0.19787449  0.66872188  0.17712952    -0.37300
N711        N  0.32116454  0.73550732  0.18833854    -0.38400
N712        N  0.31022633  0.73491819  0.22962137    -0.40000
C713        C  0.41858368  0.66046289  0.32172393    -0.05000
C714        C  0.42450838  0.67441279  0.30918802     0.09200
C715        C  0.41579612  0.66338180  0.29572808    -0.02400
C716        C  0.40120957  0.63841065  0.29471925    -0.00600
C717        C  0.39403921  0.62389937  0.30742875    -0.04200
C718        C  0.40256598  0.63572563  0.32105855     0.02800
C719        C  0.43822538  0.70090715  0.31040903     0.09600
C720        C  0.42148727  0.67796286  0.28283483     0.35500
C721        C  0.39388736  0.62341082  0.33476463     0.38900
C722        C  0.46207269  0.71460644  0.30597359    -0.04600
C723        C  0.47448858  0.73957251  0.30675965     0.02600
C724        C  0.46324302  0.75090660  0.31222280    -0.04200
C725        C  0.44003983  0.73713670  0.31764614    -0.00400
C726        C  0.42730711  0.71229025  0.31634686    -0.03000
C727        C  0.47376505  0.70299806  0.30055848     0.36300
C728        C  0.42971016  0.74831452  0.32540427     0.39900
C729        C  0.49851401  0.75365335  0.30138743     0.39000
C730        C  0.40287034  0.69838420  0.32108111     0.35900
C731        C  0.42873326  0.67189050  0.33549347     0.36600
C732        C  0.39363967  0.62862480  0.28035772     0.39900
N733        N  0.51752957  0.76491346  0.29686682    -0.38200
N734        N  0.48312613  0.69374104  0.29625628    -0.39800
N735        N  0.42135863  0.75665633  0.33212988    -0.37500
N736        N  0.38340904  0.68723964  0.32487558    -0.39900
N737        N  0.42594934  0.68949508  0.27254025    -0.39700
N738        N  0.38780462  0.62212614  0.26860939    -0.37300
N739        N  0.38744296  0.61402504  0.34586260    -0.38400
N740        N  0.43694665  0.68111860  0.34640328    -0.40000
C741        C  0.26411720  0.62028999  0.30339968    -0.05000
C742        C  0.28794100  0.62778939  0.30159311     0.09200
C743        C  0.30412011  0.65091012  0.29674176    -0.02400
C744        C  0.29673580  0.66689119  0.29412059    -0.00600
C745        C  0.27305914  0.66032377  0.29726675    -0.04200
C746        C  0.25664137  0.63630480  0.30120434     0.02800
C747        C  0.29603138  0.61094569  0.30368562     0.09600
C748        C  0.32855407  0.65811217  0.29424568     0.35500
C749        C  0.23157608  0.62707272  0.30184544     0.38900
C750        C  0.29673008  0.59819308  0.29178436    -0.04600
C751        C  0.30795422  0.58537983  0.29300071     0.02600
C752        C  0.31878171  0.58530318  0.30615022    -0.04200
C753        C  0.31657581  0.59691265  0.31839262    -0.00400
C754        C  0.30504449  0.60948834  0.31713481    -0.03000
C755        C  0.28627698  0.59875291  0.27814166     0.36300
C756        C  0.32698551  0.59704199  0.33217156     0.39900
C757        C  0.30819292  0.57240724  0.28053568     0.39000
C758        C  0.30286516  0.62145809  0.32959062     0.35900
C759        C  0.24718924  0.59578712  0.30720806     0.36600
C760        C  0.31384137  0.68929195  0.28750983     0.39900
N761        N  0.30781277  0.56241953  0.27021994    -0.38200
N762        N  0.27787475  0.59917041  0.26729245    -0.39800
N763        N  0.33493163  0.59703786  0.34328932    -0.37500
N764        N  0.30094224  0.63089144  0.33952168    -0.39900
N765        N  0.34796091  0.66373994  0.29226542    -0.39700
N766        N  0.32813966  0.70644663  0.28175731    -0.37300
N767        N  0.21138758  0.61877121  0.30228918    -0.38400
N768        N  0.23371829  0.57620169  0.31014898    -0.40000
C769        C  0.47037995  0.71061586  0.15513244    -0.05000
C770        C  0.45975819  0.69837576  0.16810190     0.09200
C771        C  0.46618472  0.71106240  0.18121727    -0.02400
C772        C  0.48174737  0.73588046  0.18116082    -0.00600
C773        C  0.48828498  0.74872441  0.16794546    -0.04200
C774        C  0.48319707  0.73562440  0.15481542     0.02800
C775        C  0.43958267  0.67299502  0.16756487     0.09600
C776        C  0.45579667  0.69884224  0.19475642     0.35500
C777        C  0.48926621  0.74707056  0.14076646     0.38900
C778        C  0.44116311  0.65466335  0.17404109    -0.04600
C779        C  0.42155220  0.63109382  0.17382715     0.02600
C780        C  0.40038458  0.62563561  0.16695624    -0.04200
C781        C  0.39937481  0.64373134  0.15968364    -0.00400
C782        C  0.41856139  0.66734856  0.16036278    -0.03000
C783        C  0.46308627  0.65998222  0.18069272     0.36300
C784        C  0.37873298  0.63827455  0.15133399     0.39900
C785        C  0.42347028  0.61235227  0.18025759     0.39000
C786        C  0.41680468  0.68596581  0.15347613     0.35900
C787        C  0.46665206  0.69728774  0.14190517     0.36600
C788        C  0.49092510  0.74784107  0.19484960     0.39900
N789        N  0.42536174  0.59755402  0.18530606    -0.38200
N790        N  0.48054307  0.66424819  0.18607345    -0.39800
N791        N  0.36242813  0.63468959  0.14476854    -0.37500
N792        N  0.41597054  0.70102068  0.14783869    -0.39900
N793        N  0.44753037  0.68916741  0.20557367    -0.39700
N794        N  0.49790480  0.75646661  0.20605247    -0.37300
N795        N  0.49398804  0.75573967  0.12940438    -0.38400
N796        N  0.46364262  0.68660166  0.13139544    -0.40000
C797        C  0.26511896  0.61661725  0.15081066    -0.05000
C798        C  0.26944484  0.61274333  0.16515203     0.09200
C799        C  0.26181025  0.62084791  0.17667082    -0.02400
C800        C  0.25497968  0.63715833  0.17393398    -0.00600
C801        C  0.25551000  0.64510849  0.15968308    -0.04200
C802        C  0.25739033  0.63226929  0.14805405     0.02800
C803        C  0.28554167  0.60401079  0.16796290     0.09600
C804        C  0.26241645  0.61346304  0.19134622     0.35500
C805        C  0.25339631  0.63618249  0.13319661     0.38900
C806        C  0.30890070  0.62017966  0.17246937    -0.04600
C807        C  0.32547459  0.61325793  0.17309323     0.02600
C808        C  0.31895425  0.59007094  0.16874219    -0.04200
C809        C  0.29456258  0.57313558  0.16619553    -0.00400
C810        C  0.27811242  0.58023428  0.16556733    -0.03000
C811        C  0.31594625  0.64414531  0.17652279     0.36300
C812        C  0.28586298  0.54804940  0.16527750     0.39900
C813        C  0.34869206  0.63023440  0.17871512     0.39000
C814        C  0.25342328  0.56308880  0.16257899     0.35900
C815        C  0.27102755  0.60655892  0.13884290     0.36600
C816        C  0.24708269  0.64540685  0.18576620     0.39900
N817        N  0.36675757  0.64427755  0.18360838    -0.38200
N818        N  0.32144294  0.66308162  0.18001266    -0.39800
N819        N  0.27883367  0.52802396  0.16458872    -0.37500
N820        N  0.23370714  0.54948929  0.16021003    -0.39900
N821        N  0.26285399  0.60747187  0.20303726    -0.39700
N822        N  0.24034704  0.65132841  0.19536988    -0.37300
N823        N  0.24980933  0.63846341  0.12124549    -0.38400
N824        N  0.27581044  0.59861977  0.12929414    -0.40000
C825        C  0.33559691  0.53745594  0.25276849    -0.05000
C826        C  0.35576297  0.55403687  0.24473442     0.09200
C827        C  0.37676539  0.57004371  0.25221358    -0.02400
C828        C  0.37696641  0.57057745  0.26748999    -0.00600
C829        C  0.35581782  0.55673220  0.27530957    -0.04200
C830        C  0.33567803  0.53872991  0.26804583     0.02800
C831        C  0.35439160  0.55560866  0.22853798     0.09600
C832        C  0.39788741  0.58665977  0.24422424     0.35500
C833        C  0.31493060  0.52187667  0.27626811     0.38900
C834        C  0.34096212  0.56419602  0.22256802    -0.04600
C835        C  0.33925149  0.56564193  0.20743154     0.02600
C836        C  0.35280692  0.56069803  0.19791027    -0.04200
C837        C  0.36624842  0.55195217  0.20397702    -0.00400
C838        C  0.36651173  0.54888021  0.21915234    -0.03000
C839        C  0.32923844  0.57223634  0.23204251     0.36300
C840        C  0.38059067  0.54683909  0.19480604     0.39900
C841        C  0.32228843  0.57102005  0.20205031     0.39000
C842        C  0.37957928  0.53910799  0.22518920     0.35900
C843        C  0.31454245  0.51960895  0.24526653     0.36600
C844        C  0.39905390  0.58456579  0.27523141     0.39900
N845        N  0.30798055  0.57496385  0.19888101    -0.38200
N846        N  0.31990720  0.57888778  0.23938938    -0.39800
N847        N  0.39222401  0.54272450  0.18767485    -0.37500
N848        N  0.39003598  0.53139639  0.23008528    -0.39900
N849        N  0.41472354  0.59992208  0.23782215    -0.39700
N850        N  0.41667785  0.59551764  0.28144399    -0.37300
N851        N  0.29841729  0.50843863  0.28285987    -0.38400
N852        N  0.29773696  0.50544076  0.23924380    -0.40000
C853        C  0.49153198  0.24707743  0.96820643    -0.05000
C854        C  0.47417982  0.23788092  0.97917515     0.09200
C855        C  0.45913682  0.21316628  0.98079647    -0.02400
C856        C  0.46202430  0.19765506  0.97189932    -0.00600
C857        C  0.48017242  0.20680336  0.96130479    -0.04200
C858        C  0.49449414  0.23166311  0.95927343     0.02800
C859        C  0.47234836  0.25435212  0.98933792     0.09600
C860        C  0.44090938  0.20373433  0.99184774     0.35500
C861        C  0.51205443  0.24154961  0.94781776     0.38900
C862        C  0.46153958  0.26660804  0.98484918    -0.04600
C863        C  0.46171734  0.28370566  0.99397507     0.02600
C864        C  0.47264150  0.28854517  0.00776511    -0.04200
C865        C  0.48178371  0.27481535  0.01263082    -0.00400
C866        C  0.48202803  0.25814137  0.00335642    -0.03000
C867        C  0.45062091  0.26186358  0.97067622     0.36300
C868        C  0.49033118  0.27726355  0.02735229     0.39900
C869        C  0.45128329  0.29672126  0.98885654     0.39000
C870        C  0.49273380  0.24519417  0.00811699     0.35900
C871        C  0.50659348  0.27252007  0.96626259     0.36600
C872        C  0.44674987  0.17230879  0.97410855     0.39900
N873        N  0.44283459  0.30696750  0.98473253    -0.38200
N874        N  0.44196327  0.25803751  0.95935536    -0.39800
N875        N  0.49693518  0.27907759  0.03913584    -0.37500
N876        N  0.50126250  0.23484535  0.01188487    -0.39900
N877        N  0.42644134  0.19624970  0.00070563    -0.39700
N878        N  0.43449913  0.15208917  0.97584705    -0.37300
N879        N  0.52604813  0.24947652  0.93867883    -0.38400
N880        N  0.51850673  0.29281152  0.96469970    -0.40000
C881        C  0.56426000  0.16798854  0.98943292    -0.05000
C882        C  0.58288419  0.16727034  0.98281363     0.09200
C883        C  0.58438147  0.16723153  0.96759288    -0.02400
C884        C  0.56716249  0.16759559  0.95898893    -0.00600
C885        C  0.54798960  0.16755844  0.96558209    -0.04200
C886        C  0.54681245  0.16805435  0.98087063     0.02800
C887        C  0.60115692  0.16669657  0.99182785     0.09600
C888        C  0.60360494  0.16655383  0.96080277     0.35500
C889        C  0.52813819  0.16948517  0.98783029     0.38900
C890        C  0.59830271  0.14483266  0.99567964    -0.04600
C891        C  0.61633747  0.14427486  0.00323982     0.02600
C892        C  0.63721069  0.16565329  0.00721400    -0.04200
C893        C  0.63965583  0.18754530  0.00375019    -0.00400
C894        C  0.62170320  0.18802542  0.99604335    -0.03000
C895        C  0.57663424  0.12292300  0.99196324     0.36300
C896        C  0.66102660  0.20964964  0.00760613     0.39900
C897        C  0.61308365  0.12166529  0.00726765     0.39000
C898        C  0.62434687  0.21047427  0.99234439     0.35900
C899        C  0.56317078  0.16873504  0.00508546     0.36600
C900        C  0.56896600  0.16734766  0.94334066     0.39900
N901        N  0.61052685  0.10365571  0.01049612    -0.38200
N902        N  0.55925520  0.10548555  0.98906774    -0.39800
N903        N  0.67808855  0.22727582  0.01067173    -0.37500
N904        N  0.62633796  0.22833428  0.98940023    -0.39900
N905        N  0.61892257  0.16595143  0.95542165    -0.39700
N906        N  0.57048714  0.16727821  0.93086208    -0.37300
N907        N  0.51328769  0.17072311  0.99337017    -0.38400
N908        N  0.56240782  0.16939748  0.01757865    -0.40000
C909        C  0.77946287  0.25087616  0.99683768    -0.05000
C910        C  0.78892148  0.24188843  0.98696097     0.09200
C911        C  0.77954819  0.21729274  0.98650003    -0.02400
C912        C  0.76032118  0.20167710  0.99550290    -0.00600
C913        C  0.75046381  0.21058171  0.00527165    -0.04200
C914        C  0.76050455  0.23540129  0.00601647     0.02800
C915        C  0.80809687  0.25844500  0.97664572     0.09600
C916        C  0.78956565  0.20804876  0.97658555     0.35500
C917        C  0.75173753  0.24525578  0.01642082     0.38900
C918        C  0.83167432  0.27261047  0.98138650    -0.04600
C919        C  0.84916265  0.29018057  0.97219983     0.02600
C920        C  0.84316478  0.29388494  0.95812908    -0.04200
C921        C  0.81970834  0.27872490  0.95317360    -0.00400
C922        C  0.80235036  0.26109276  0.96237286    -0.03000
C923        C  0.83780056  0.26942431  0.99590160     0.36300
C924        C  0.81329301  0.28107632  0.93855724     0.39900
C925        C  0.87304436  0.30511410  0.97762494     0.39000
C926        C  0.77833533  0.24586952  0.95725021     0.35900
C927        C  0.78910673  0.27617725  0.99737414     0.36600
C928        C  0.75009344  0.17635796  0.99415728     0.39900
N929        N  0.89208913  0.31698832  0.98196495    -0.38200
N930        N  0.84271138  0.26693238  0.00748462    -0.39800
N931        N  0.80815849  0.28296642  0.92690454    -0.37500
N932        N  0.75918796  0.23360240  0.95317558    -0.39900
N933        N  0.79755758  0.20066996  0.96867437    -0.39700
N934        N  0.74188007  0.15615249  0.99305763    -0.37300
N935        N  0.74481308  0.25316833  0.02472945    -0.38400
N936        N  0.79687662  0.29636979  0.99775339    -0.40000
C937        C  0.60193201  0.45938030  0.97272487    -0.05000
C938        C  0.60365940  0.45933545  0.98792589     0.09200
C939        C  0.62359754  0.47802848  0.99491902    -0.02400
C940        C  0.64191319  0.49665694  0.98673330    -0.00600
C941        C  0.64030566  0.49673858  0.97143018    -0.04200
C942        C  0.62008337  0.47799020  0.96449907     0.02800
C943        C  0.58383474  0.43995210  0.99654015     0.09600
C944        C  0.62500727  0.47820720  0.01058743     0.35500
C945        C  0.61722372  0.47832919  0.94894506     0.38900
C946        C  0.58393673  0.41945225  0.00022118    -0.04600
C947        C  0.56413933  0.40023916  0.00712711     0.02600
C948        C  0.54432795  0.40168493  0.01062906    -0.04200
C949        C  0.54480911  0.42273407  0.00753795    -0.00400
C950        C  0.56441992  0.44170494  0.00043313    -0.03000
C951        C  0.60443852  0.41819232  0.99683845     0.36300
C952        C  0.52541397  0.42520069  0.01207300     0.39900
C953        C  0.56379827  0.37865981  0.01002227     0.39000
C954        C  0.56469957  0.46313620  0.99712118     0.35900
C955        C  0.58109416  0.44045564  0.96556906     0.36600
C956        C  0.66246931  0.51551877  0.99413857     0.39900
N957        N  0.56350749  0.36141078  0.01225330    -0.38200
N958        N  0.62090852  0.41733539  0.99422719    -0.39800
N959        N  0.50993576  0.42707787  0.01577869    -0.37500
N960        N  0.56496115  0.48025760  0.99449459    -0.39900
N961        N  0.62603383  0.47833902  0.02309242    -0.39700
N962        N  0.67881630  0.53059508  0.00006514    -0.37300
N963        N  0.61493739  0.47870177  0.93655144    -0.38400
N964        N  0.56443409  0.42542453  0.95986492    -0.40000
C965        C  0.90944165  0.48289905  0.98405577    -0.05000
C966        C  0.89040375  0.45940047  0.98598945     0.09200
C967        C  0.87201902  0.45462943  0.99564371    -0.02400
C968        C  0.87234194  0.47335769  0.00306421    -0.00600
C969        C  0.89159984  0.49699458  0.00129714    -0.04200
C970        C  0.91034694  0.50153091  0.99189805     0.02800
C971        C  0.88973111  0.43973593  0.97767598     0.09600
C972        C  0.85284021  0.43034586  0.99797052     0.35500
C973        C  0.93118747  0.52520088  0.99073345     0.38900
C974        C  0.90272464  0.42988116  0.98249640    -0.04600
C975        C  0.90347218  0.41255287  0.97412847     0.02600
C976        C  0.89076146  0.40455938  0.96096611    -0.04200
C977        C  0.87700111  0.41387502  0.95646846    -0.00400
C978        C  0.87676666  0.43158084  0.96470082    -0.03000
C979        C  0.91544168  0.43773416  0.99608191     0.36300
C980        C  0.86243745  0.40481384  0.94358975     0.39900
C981        C  0.91807566  0.40369498  0.97887018     0.39000
C982        C  0.86332655  0.44163577  0.95975373     0.35900
C983        C  0.92812200  0.48787773  0.97390403     0.36600
C984        C  0.85241703  0.46824231  0.01211182     0.39900
N985        N  0.92975571  0.39665355  0.98262948    -0.38200
N986        N  0.92551505  0.44395811  0.00694765    -0.39800
N987        N  0.85076739  0.39750125  0.93335080    -0.37500
N988        N  0.85262210  0.44966783  0.95579592    -0.39900
N989        N  0.83765917  0.41092614  0.99984650    -0.39700
N990        N  0.83641599  0.46409117  0.01925375    -0.37300
N991        N  0.94786706  0.54405367  0.98991421    -0.38400
N992        N  0.94293949  0.49180375  0.96575304    -0.40000
C993        C  0.78280097  0.55193298  0.96908926    -0.05000
C994        C  0.79066210  0.56498122  0.98208636     0.09200
C995        C  0.77943410  0.57644262  0.98735434    -0.02400
C996        C  0.76026860  0.57467650  0.97974088    -0.00600
C997        C  0.75237542  0.56162310  0.96669376    -0.04200
C998        C  0.76386416  0.55039152  0.96135866     0.02800
C999        C  0.81013240  0.56565332  0.99050680     0.09600
C1000       C  0.78723131  0.58950607  0.00084480     0.35500
C1001       C  0.75639529  0.53739035  0.94782272     0.38900
C1002       C  0.83380279  0.58026009  0.98596616    -0.04600
C1003       C  0.85190219  0.57917456  0.99308473     0.02600
C1004       C  0.84637133  0.56330677  0.00480462    -0.04200
C1005       C  0.82270180  0.54961116  0.00977484    -0.00400
C1006       C  0.80471138  0.55072221  0.00260627    -0.03000
C1007       C  0.83938266  0.59607000  0.97374038     0.36300
C1008       C  0.81670402  0.53452391  0.02242558     0.39900
C1009       C  0.87599214  0.59375500  0.98789140     0.39000
C1010       C  0.78043676  0.53611323  0.00751357     0.35900
C1011       C  0.79385285  0.53953718  0.96388475     0.36600
C1012       C  0.74781448  0.58510993  0.98583059     0.39900
N1013       N  0.89518602  0.60546786  0.98371175    -0.38200
N1014       N  0.84371487  0.60859435  0.96395681    -0.39800
N1015       N  0.81186067  0.52246751  0.03250426    -0.37500
N1016       N  0.76108571  0.52454275  0.01144477    -0.39900
N1017       N  0.79336645  0.59978269  0.01166054    -0.39700
N1018       N  0.73775071  0.59327073  0.99071848    -0.37300
N1019       N  0.75041257  0.52701154  0.93703474    -0.38400
N1020       N  0.80265531  0.52961247  0.95978773    -0.40000
C1021       C  0.38035788  0.40174157  0.02870742    -0.05000
C1022       C  0.40490750  0.41173023  0.02977769     0.09200
C1023       C  0.42013921  0.43644608  0.03121868    -0.02400
C1024       C  0.41090670  0.45115365  0.03177433    -0.00600
C1025       C  0.38631318  0.44133094  0.03023380    -0.04200
C1026       C  0.37108854  0.41649614  0.02865375     0.02800
C1027       C  0.41501379  0.39637189  0.02992422     0.09600
C1028       C  0.44545488  0.44673079  0.03203479     0.35500
C1029       C  0.34579174  0.40594292  0.02747855     0.38900
C1030       C  0.41989044  0.38887010  0.01683097    -0.04600
C1031       C  0.43188954  0.37667370  0.01701034     0.02600
C1032       C  0.44011597  0.37304446  0.03026054    -0.04200
C1033       C  0.43452581  0.37993034  0.04337172    -0.00400
C1034       C  0.42155500  0.39105479  0.04319975    -0.03000
C1035       C  0.41342221  0.39461700  0.00316831     0.36300
C1036       C  0.44201530  0.37545873  0.05709446     0.39900
C1037       C  0.43659609  0.36880642  0.00350697     0.39000
C1038       C  0.41516014  0.39737903  0.05668935     0.35900
C1039       C  0.36464779  0.37622159  0.02801489     0.36600
C1040       C  0.42696154  0.47646910  0.03369296     0.39900
N1041       N  0.44016359  0.36237600  0.99273085    -0.38200
N1042       N  0.40837262  0.39935899  0.99228133    -0.39800
N1043       N  0.44811071  0.37193558  0.06800277    -0.37500
N1044       N  0.40990009  0.40231087  0.06743402    -0.39900
N1045       N  0.46561897  0.45481932  0.03262709    -0.39700
N1046       N  0.43979243  0.49661645  0.03536224    -0.37300
N1047       N  0.32560827  0.39751433  0.02651683    -0.38400
N1048       N  0.35212391  0.35584502  0.02757725    -0.40000
C1049       C  0.37506094  0.52554972  0.09310784    -0.05000
C1050       C  0.35309912  0.51618550  0.10010916     0.09200
C1051       C  0.33221833  0.49932397  0.09293489    -0.02400
C1052       C  0.33316990  0.49246005  0.07859691    -0.00600
C1053       C  0.35509602  0.50262795  0.07130033    -0.04200
C1054       C  0.37609312  0.51899176  0.07874964     0.02800
C1055       C  0.35190569  0.52635859  0.11432477     0.09600
C1056       C  0.30970104  0.48961674  0.10023309     0.35500
C1057       C  0.39891774  0.52915900  0.07170888     0.38900
C1058       C  0.35133669  0.54706127  0.11439076    -0.04600
C1059       C  0.35189735  0.55804262  0.12754787     0.02600
C1060       C  0.35264446  0.54826841  0.14127053    -0.04200
C1061       C  0.35397943  0.52749805  0.14087186    -0.00400
C1062       C  0.35290642  0.51642990  0.12750600    -0.03000
C1063       C  0.35049963  0.55733553  0.10067283     0.36300
C1064       C  0.35862401  0.51804125  0.15361243     0.39900
C1065       C  0.35233356  0.58000173  0.12646946     0.39000
C1066       C  0.35333220  0.49486624  0.12718920     0.35900
C1067       C  0.39662624  0.54234893  0.10064617     0.36600
C1068       C  0.31142574  0.47598043  0.07114239     0.39900
N1069       N  0.35228824  0.59722144  0.12505320    -0.38200
N1070       N  0.34985701  0.56546812  0.08974384    -0.39800
N1071       N  0.36248975  0.50964029  0.16333123    -0.37500
N1072       N  0.35354458  0.47761667  0.12686774    -0.39900
N1073       N  0.29179797  0.48193897  0.10613379    -0.39700
N1074       N  0.29402770  0.46287670  0.06521163    -0.37300
N1075       N  0.41708845  0.53735606  0.06605768    -0.38400
N1076       N  0.41383832  0.55569020  0.10666115    -0.40000
C1077       C  0.99754399  0.37280445  0.93312079    -0.05000
C1078       C  0.01378579  0.39680671  0.93635080     0.09200
C1079       C  0.00560774  0.41214508  0.93872783    -0.02400
C1080       C  0.98123871  0.40346980  0.93825471    -0.00600
C1081       C  0.96472743  0.37940639  0.93467104    -0.04200
C1082       C  0.97324209  0.36428187  0.93179692     0.02800
C1083       C  0.03976721  0.40649131  0.93654429     0.09600
C1084       C  0.02246082  0.43705468  0.94155472     0.35500
C1085       C  0.95735117  0.34022504  0.92681096     0.38900
C1086       C  0.05277779  0.41420851  0.92353254    -0.04600
C1087       C  0.07760460  0.42597985  0.92377956     0.02600
C1088       C  0.08968217  0.43050759  0.93709756    -0.04200
C1089       C  0.07651912  0.42178330  0.95008799    -0.00400
C1090       C  0.05161935  0.40969383  0.94977354    -0.03000
C1091       C  0.04056805  0.41067382  0.90991347     0.36300
C1092       C  0.08853221  0.42645818  0.96388725     0.39900
C1093       C  0.09070857  0.43328473  0.91026981     0.39000
C1094       C  0.03814276  0.40111352  0.96310048     0.35900
C1095       C  0.00592476  0.35686141  0.93124126     0.36600
C1096       C  0.97342636  0.41947204  0.94180171     0.39900
N1097       N  0.10121587  0.43906740  0.89951497    -0.38200
N1098       N  0.03074686  0.40785827  0.89908166    -0.39800
N1099       N  0.09810895  0.43025668  0.97490264    -0.37500
N1100       N  0.02735868  0.39422669  0.97372064    -0.39900
N1101       N  0.03596480  0.45691960  0.94372439    -0.39700
N1102       N  0.96726878  0.43227687  0.94466848    -0.37300
N1103       N  0.94477639  0.32111241  0.92266754    -0.38400
N1104       N  0.01260723  0.34411276  0.92988848    -0.40000
C1105       C  0.27169343  0.45358841  0.98834141    -0.05000
C1106       C  0.26534265  0.47064205  0.98887404     0.09200
C1107       C  0.27750528  0.49024612  0.99820505    -0.02400
C1108       C  0.29589478  0.49278810  0.00704979    -0.00600
C1109       C  0.30259087  0.47586241  0.00647153    -0.04200
C1110       C  0.29021806  0.45612099  0.99709489     0.02800
C1111       C  0.24652913  0.46867211  0.97911391     0.09600
C1112       C  0.27148675  0.50821450  0.99835085     0.35500
C1113       C  0.29724262  0.43899931  0.99579654     0.38900
C1114       C  0.22279353  0.45659914  0.98374614    -0.04600
C1115       C  0.20543331  0.45649812  0.97499834     0.02600
C1116       C  0.21173170  0.46831029  0.96147646    -0.04200
C1117       C  0.23539731  0.47964650  0.95665161    -0.00400
C1118       C  0.25272870  0.47994671  0.96548858    -0.03000
C1119       C  0.21640261  0.44485608  0.99771612     0.36300
C1120       C  0.24194422  0.49085005  0.94251154     0.39900
C1121       C  0.18141724  0.44546981  0.98034326     0.39000
C1122       C  0.27713692  0.49234326  0.96073460     0.35900
C1123       C  0.25968195  0.43390763  0.97833359     0.36600
C1124       C  0.30769488  0.51280718  0.01684333     0.39900
N1125       N  0.16227686  0.43679538  0.98461016    -0.38200
N1126       N  0.21128061  0.43547346  0.00885977    -0.39800
N1127       N  0.24713078  0.49974768  0.93122385    -0.37500
N1128       N  0.29664363  0.50229269  0.95700880    -0.39900
N1129       N  0.26676735  0.52260116  0.99834120    -0.39700
N1130       N  0.31710962  0.52879981  0.02463377    -0.37300
N1131       N  0.30284157  0.42534288  0.99469452    -0.38400
N1132       N  0.25015093  0.41832641  0.97026455    -0.40000
C1133       C  0.42218302  0.00202018  0.92409857    -0.05000
C1134       C  0.41540180  0.01194174  0.93508899     0.09200
C1135       C  0.39774167  0.99701486  0.94509384    -0.02400
C1136       C  0.38723789  0.97226102  0.94433434    -0.00600
C1137       C  0.39457533  0.96229502  0.93363200    -0.04200
C1138       C  0.41189729  0.97729012  0.92339415     0.02800
C1139       C  0.42778839  0.03824558  0.93655827     0.09600
C1140       C  0.39090922  0.00725775  0.95644401     0.35500
C1141       C  0.41889359  0.96729858  0.91196479     0.38900
C1142       C  0.41757067  0.05053001  0.93101489    -0.04600
C1143       C  0.42983653  0.07547858  0.93195653     0.02600
C1144       C  0.45243914  0.08818128  0.93837904    -0.04200
C1145       C  0.46228278  0.07574266  0.94430771    -0.00400
C1146       C  0.45000175  0.05088502  0.94339152    -0.03000
C1147       C  0.39465917  0.03744267  0.92407322     0.36300
C1148       C  0.48495721  0.08853464  0.95160484     0.39900
C1149       C  0.41966207  0.08805965  0.92572801     0.39000
C1150       C  0.46028876  0.03825645  0.94941493     0.35900
C1151       C  0.43995285  0.01738134  0.91359696     0.36600
C1152       C  0.36971541  0.95721458  0.95504768     0.39900
N1153       N  0.41149946  0.09803426  0.92071245    -0.38200
N1154       N  0.37636294  0.02688201  0.91855588    -0.39800
N1155       N  0.50302430  0.09885271  0.95741114    -0.37500
N1156       N  0.46853373  0.02821155  0.95420081    -0.39900
N1157       N  0.38550106  0.01546949  0.96549750    -0.39700
N1158       N  0.35573224  0.94517478  0.96357706    -0.37300
N1159       N  0.42444493  0.95931251  0.90284512    -0.38400
N1160       N  0.45413605  0.02969233  0.90524219    -0.40000
C1161       C  0.06011314  0.64498512  0.03569430    -0.05000
C1162       C  0.04672218  0.63691622  0.02286205     0.09200
C1163       C  0.05817308  0.63957544  0.00952332    -0.02400
C1164       C  0.08280323  0.64956634  0.00904400    -0.00600
C1165       C  0.09629864  0.65741880  0.02192167    -0.04200
C1166       C  0.08478966  0.65516269  0.03526121     0.02800
C1167       C  0.02029718  0.62319353  0.02355848     0.09600
C1168       C  0.04440281  0.63125309  0.99632268     0.35500
C1169       C  0.09822929  0.66317893  0.04860230     0.38900
C1170       C  0.00764140  0.63447251  0.02156515    -0.04600
C1171       C  0.98266752  0.62106437  0.02166059     0.02600
C1172       C  0.97018623  0.59627966  0.02403023    -0.04200
C1173       C  0.98306884  0.58514171  0.02621135    -0.00400
C1174       C  0.00794981  0.59856147  0.02597588    -0.03000
C1175       C  0.02039402  0.65995089  0.01967620     0.36300
C1176       C  0.97085660  0.55967845  0.02819671     0.39900
C1177       C  0.96991677  0.63295096  0.01970456     0.39000
C1178       C  0.02101545  0.58703426  0.02821438     0.35900
C1179       C  0.04831294  0.64228686  0.04939744     0.36600
C1180       C  0.09388656  0.65008312  0.99541089     0.39900
N1181       N  0.95972356  0.64241639  0.01812399    -0.38200
N1182       N  0.03057594  0.68030790  0.01827257    -0.39800
N1183       N  0.96115975  0.53937992  0.02978141    -0.37500
N1184       N  0.03155960  0.57799006  0.03003428    -0.39900
N1185       N  0.03342098  0.62463629  0.98578993    -0.39700
N1186       N  0.10273078  0.65030212  0.98458274    -0.37300
N1187       N  0.10893089  0.66945892  0.05925308    -0.38400
N1188       N  0.03883672  0.64008589  0.06031287    -0.40000
C1189       C  0.22020716  0.71960756  0.08080544    -0.05000
C1190       C  0.20914540  0.70093904  0.09093252     0.09200
C1191       C  0.18829175  0.67957613  0.08709920    -0.02400
C1192       C  0.17920244  0.67644262  0.07297355    -0.00600
C1193       C  0.19107964  0.69458673  0.06251992    -0.04200
C1194       C  0.21133945  0.71642407  0.06659477     0.02800
C1195       C  0.22126547  0.70243952  0.10485136     0.09600
C1196       C  0.17664310  0.66047668  0.09756739     0.35500
C1197       C  0.22404633  0.73509646  0.05598203     0.38900
C1198       C  0.21288291  0.70538839  0.11813949    -0.04600
C1199       C  0.22310812  0.70445488  0.13135735     0.02600
C1200       C  0.24311282  0.70200711  0.13137837    -0.04200
C1201       C  0.25097688  0.69863447  0.11761228    -0.00400
C1202       C  0.24026170  0.69907485  0.10463041    -0.03000
C1203       C  0.19310168  0.70872618  0.11814067     0.36300
C1204       C  0.26968599  0.69371750  0.11643339     0.39900
C1205       C  0.21093765  0.70365023  0.14449653     0.39000
C1206       C  0.24846347  0.69540416  0.09086249     0.35900
C1207       C  0.24135600  0.74173429  0.08490666     0.36600
C1208       C  0.15755867  0.65448086  0.06923588     0.39900
N1209       N  0.20026689  0.70290643  0.15458291    -0.38200
N1210       N  0.17731416  0.71134181  0.11809754    -0.39800
N1211       N  0.28479526  0.69016397  0.11529868    -0.37500
N1212       N  0.25499962  0.69256711  0.07989720    -0.39900
N1213       N  0.16730295  0.64527578  0.10593071    -0.39700
N1214       N  0.14031410  0.63699441  0.06621434    -0.37300
N1215       N  0.23428046  0.74997747  0.04752244    -0.38400
N1216       N  0.25826350  0.75930523  0.08823528    -0.40000
C1217       C  0.18640184  0.60797125  0.98798165    -0.05000
C1218       C  0.16445317  0.58735494  0.98476461     0.09200
C1219       C  0.14333653  0.58598757  0.98862539    -0.02400
C1220       C  0.14412914  0.60518775  0.99563565    -0.00600
C1221       C  0.16611273  0.62585218  0.99893512    -0.04200
C1222       C  0.18726469  0.62711276  0.99513177     0.02800
C1223       C  0.16357173  0.56718948  0.97703376     0.09600
C1224       C  0.12077060  0.56471738  0.98539985     0.35500
C1225       C  0.20996289  0.64839756  0.99810619     0.38900
C1226       C  0.16760462  0.55129181  0.98462641    -0.04600
C1227       C  0.16700785  0.53240640  0.97727491     0.02600
C1228       C  0.16254661  0.52944103  0.96219453    -0.04200
C1229       C  0.15810501  0.54525398  0.95469747    -0.00400
C1230       C  0.15870835  0.56405362  0.96209066    -0.03000
C1231       C  0.17253919  0.55455236  0.00002371     0.36300
C1232       C  0.15211862  0.54186127  0.93942836     0.39900
C1233       C  0.17160888  0.51650125  0.98524332     0.39000
C1234       C  0.15436558  0.58029596  0.95430179     0.35900
C1235       C  0.20809961  0.60958013  0.98369274     0.36600
C1236       C  0.12226520  0.60329649  0.99986751     0.39900
N1237       N  0.17521805  0.50381138  0.99164933    -0.38200
N1238       N  0.17656924  0.55729437  0.01229087    -0.39800
N1239       N  0.14731212  0.53915216  0.92726051    -0.37500
N1240       N  0.15082469  0.59319296  0.94809450    -0.39900
N1241       N  0.10278985  0.54775932  0.98278179    -0.39700
N1242       N  0.10485939  0.60182518  0.00326680    -0.37300
N1243       N  0.22806682  0.66537210  0.00047577    -0.38400
N1244       N  0.22537410  0.61081528  0.98024967    -0.40000
C1245       C  0.22854464  0.77604569  0.98186641    -0.05000
C1246       C  0.25196517  0.78145417  0.98122440     0.09200
C1247       C  0.25839240  0.76754346  0.98903061    -0.02400
C1248       C  0.24141284  0.74806310  0.99728543    -0.00600
C1249       C  0.21756739  0.74185538  0.99747285    -0.04200
C1250       C  0.21131825  0.75620584  0.98983179     0.02800
C1251       C  0.27013543  0.80193912  0.97240263     0.09600
C1252       C  0.28262701  0.77339168  0.98857997     0.35500
C1253       C  0.18708989  0.75033457  0.98976011     0.38900
C1254       C  0.28563346  0.82386535  0.97909777    -0.04600
C1255       C  0.30425625  0.84251937  0.97112468     0.02600
C1256       C  0.30791267  0.83908059  0.95645309    -0.04200
C1257       C  0.29176240  0.81731392  0.94964505    -0.00400
C1258       C  0.27270614  0.79899757  0.95754469    -0.03000
C1259       C  0.28261414  0.82697191  0.99431839     0.36300
C1260       C  0.29457085  0.81372077  0.93446936     0.39900
C1261       C  0.32018444  0.86483843  0.97828877     0.39000
C1262       C  0.25571122  0.77703428  0.95041577     0.35900
C1263       C  0.22227207  0.79103855  0.97433038     0.36600
C1264       C  0.24886551  0.73505730  0.00601380     0.39900
N1265       N  0.33279381  0.88266072  0.98401419    -0.38200
N1266       N  0.28014945  0.82931276  0.00647179    -0.39800
N1267       N  0.29686315  0.81079067  0.92238568    -0.37500
N1268       N  0.24199273  0.75961335  0.94469795    -0.39900
N1269       N  0.30195698  0.77808520  0.98822099    -0.39700
N1270       N  0.25485853  0.72479489  0.01303344    -0.37300
N1271       N  0.16776993  0.74569376  0.98968398    -0.38400
N1272       N  0.21736912  0.80311169  0.96835614    -0.40000
C1273       C  0.64818642  0.61578361  0.93639795    -0.05000
C1274       C  0.64701853  0.62538917  0.94975253     0.09200
C1275       C  0.65661959  0.62147143  0.96224542    -0.02400
C1276       C  0.66658359  0.60732787  0.96148576    -0.00600
C1277       C  0.66743028  0.59736612  0.94811732    -0.04200
C1278       C  0.65849685  0.60202692  0.93554236     0.02800
C1279       C  0.63474805  0.63881323  0.95059270     0.09600
C1280       C  0.65598455  0.63180979  0.97591285     0.35500
C1281       C  0.66042711  0.59318995  0.92159057     0.38900
C1282       C  0.60992165  0.62633314  0.95163086    -0.04600
C1283       C  0.59797437  0.63851921  0.95068046     0.02600
C1284       C  0.61079960  0.66346435  0.94897944    -0.04200
C1285       C  0.63574357  0.67607040  0.94873824    -0.00400
C1286       C  0.64764550  0.66373800  0.94935306    -0.03000
C1287       C  0.59666469  0.60081919  0.95353530     0.36300
C1288       C  0.64915837  0.70161572  0.94721838     0.39900
C1289       C  0.57239612  0.62528620  0.95165664     0.39000
C1290       C  0.67315881  0.67656169  0.94828336     0.35900
C1291       C  0.63863320  0.62004453  0.92349612     0.36600
C1292       C  0.67489634  0.60214169  0.97461998     0.39900
N1293       N  0.55200152  0.61469428  0.95240012    -0.38200
N1294       N  0.58614842  0.58048144  0.95509473    -0.39800
N1295       N  0.65987012  0.72201911  0.94602505    -0.37500
N1296       N  0.69351962  0.68668090  0.94739961    -0.39900
N1297       N  0.65561286  0.64017389  0.98680721    -0.39700
N1298       N  0.68143279  0.59789569  0.98509588    -0.37300
N1299       N  0.66205187  0.58618525  0.91046860    -0.38400
N1300       N  0.63095634  0.62344507  0.91323048    -0.40000
C1301       C  0.47183784  0.60659989  0.96834630    -0.05000
C1302       C  0.47613981  0.59718942  0.98075851     0.09200
C1303       C  0.49941513  0.60698780  0.98574635    -0.02400
C1304       C  0.51836926  0.62656781  0.97856147    -0.00600
C1305       C  0.51414478  0.63657288  0.96626204    -0.04200
C1306       C  0.49067798  0.62620731  0.96111325     0.02800
C1307       C  0.45592634  0.57748726  0.98893694     0.09600
C1308       C  0.50380830  0.59683589  0.99832514     0.35500
C1309       C  0.48554633  0.63595874  0.94863398     0.38900
C1310       C  0.44872623  0.55375552  0.98623626    -0.04600
C1311       C  0.42959653  0.53522210  0.99398698     0.02600
C1312       C  0.41744254  0.54037382  0.00445602    -0.04200
C1313       C  0.42451574  0.56425965  0.00690926    -0.00400
C1314       C  0.44377805  0.58269386  0.99925187    -0.03000
C1315       C  0.46108996  0.54849694  0.97545168     0.36300
C1316       C  0.41150031  0.56998714  0.01691776     0.39900
C1317       C  0.42296148  0.51096319  0.99142309     0.39000
C1318       C  0.45111437  0.60714017  0.00191918     0.35900
C1319       C  0.44784939  0.59607594  0.96310056     0.36600
C1320       C  0.54222415  0.63588134  0.98372113     0.39900
N1321       N  0.41766763  0.49161179  0.98936735    -0.38200
N1322       N  0.47098802  0.54437528  0.96682960    -0.39800
N1323       N  0.40107649  0.57454501  0.02486211    -0.37500
N1324       N  0.45698314  0.62664248  0.00402061    -0.39900
N1325       N  0.50732234  0.58868907  0.00832644    -0.39700
N1326       N  0.56123371  0.64326794  0.98784617    -0.37300
N1327       N  0.48132646  0.64361696  0.93867435    -0.38400
N1328       N  0.42868944  0.58759678  0.95896160    -0.40000
C1329       C  0.64912195  0.05356553  0.01762854    -0.05000
C1330       C  0.63708840  0.04036679  0.03007870     0.09200
C1331       C  0.63692919  0.05227731  0.04264991    -0.02400
C1332       C  0.64833109  0.07720194  0.04272829    -0.00600
C1333       C  0.66015151  0.09058093  0.03018010    -0.04200
C1334       C  0.66067151  0.07853434  0.01765602     0.02800
C1335       C  0.62393322  0.01379020  0.02987153     0.09600
C1336       C  0.62489344  0.03874738  0.05554011     0.35500
C1337       C  0.67223470  0.09158360  0.00453790     0.38900
C1338       C  0.63593160  0.00190615  0.03220960    -0.04600
C1339       C  0.62338854  0.97687726  0.03239655     0.02600
C1340       C  0.59866935  0.96347192  0.03021027    -0.04200
C1341       C  0.58670145  0.97550535  0.02781463    -0.00400
C1342       C  0.59931866  0.00051345  0.02760285    -0.03000
C1343       C  0.66122804  0.01553664  0.03455758     0.36300
C1344       C  0.56145336  0.96226488  0.02515069     0.39900
C1345       C  0.63585638  0.96499001  0.03544773     0.39000
C1346       C  0.58703434  0.01271811  0.02490969     0.35900
C1347       C  0.64915597  0.04130031  0.00466730     0.36600
C1348       C  0.64817514  0.08898448  0.05589749     0.39900
N1349       N  0.64576647  0.95547897  0.03793990    -0.38200
N1350       N  0.68142647  0.02646760  0.03639438    -0.39800
N1351       N  0.54132006  0.95175514  0.02303980    -0.37500
N1352       N  0.57733830  0.02254747  0.02275264    -0.39900
N1353       N  0.61526199  0.02791141  0.06580322    -0.39700
N1354       N  0.64800104  0.09837885  0.06638904    -0.37300
N1355       N  0.68144582  0.10194815  0.99405828    -0.38400
N1356       N  0.64913652  0.03145590  0.99434509    -0.40000
C1357       C  0.53116463  0.84274014  0.09223454    -0.05000
C1358       C  0.54729576  0.85905523  0.10242744     0.09200
C1359       C  0.56650641  0.88102787  0.09768452    -0.02400
C1360       C  0.56945812  0.88683580  0.08281275    -0.00600
C1361       C  0.55317110  0.87061456  0.07256058    -0.04200
C1362       C  0.53393323  0.84852869  0.07738015     0.02800
C1363       C  0.54331462  0.85313997  0.11820828     0.09600
C1364       C  0.58301651  0.89778660  0.10818059     0.35500
C1365       C  0.51695811  0.83159223  0.06709809     0.38900
C1366       C  0.55348734  0.84176571  0.12503786    -0.04600
C1367       C  0.54621444  0.83243266  0.13912718     0.02600
C1368       C  0.52728685  0.83269788  0.14589555    -0.04200
C1369       C  0.52167930  0.84907954  0.14042878    -0.00400
C1370       C  0.52885683  0.85843352  0.12634713    -0.03000
C1371       C  0.57124553  0.83953854  0.11750280     0.36300
C1372       C  0.50909647  0.85677829  0.14934076     0.39900
C1373       C  0.55978288  0.82493363  0.14710977     0.39000
C1374       C  0.52099844  0.87305225  0.12008060     0.35900
C1375       C  0.51163232  0.81992705  0.09708982     0.36600
C1376       C  0.58849758  0.91008182  0.07820176     0.39900
N1377       N  0.57075538  0.81916208  0.15354208    -0.38200
N1378       N  0.58549334  0.83789056  0.11147156    -0.39800
N1379       N  0.49914395  0.86300330  0.15646442    -0.37500
N1380       N  0.51481655  0.88476944  0.11504508    -0.39900
N1381       N  0.59619087  0.91114373  0.11656967    -0.39700
N1382       N  0.60356593  0.92865387  0.07447781    -0.37300
N1383       N  0.50331855  0.81814498  0.05892323    -0.38400
N1384       N  0.49610914  0.80171316  0.10096441    -0.40000
C1385       C  0.58710454  0.83248567  0.98569999    -0.05000
C1386       C  0.57499271  0.80844984  0.98989576     0.09200
C1387       C  0.56137980  0.80136643  0.00271073    -0.02400
C1388       C  0.55920605  0.81795996  0.01099883    -0.00600
C1389       C  0.57094247  0.84204412  0.00667699    -0.04200
C1390       C  0.58528272  0.84924379  0.99408542     0.02800
C1391       C  0.57602183  0.79032831  0.98070493     0.09600
C1392       C  0.54963645  0.77687148  0.00739352     0.35500
C1393       C  0.59750851  0.87373090  0.98936476     0.38900
C1394       C  0.59535456  0.78733854  0.98169149    -0.04600
C1395       C  0.59508694  0.76861353  0.97423882     0.02600
C1396       C  0.57584500  0.75322801  0.96515322    -0.04200
C1397       C  0.55735214  0.75756481  0.96333961    -0.00400
C1398       C  0.55720785  0.77559426  0.97132659    -0.03000
C1399       C  0.61553825  0.80358882  0.99046016     0.36300
C1400       C  0.53872260  0.74405909  0.95289506     0.39900
C1401       C  0.61424590  0.76474071  0.97649102     0.39000
C1402       C  0.53760290  0.77903392  0.96991956     0.35900
C1403       C  0.60113849  0.83986514  0.97256098     0.36600
C1404       C  0.54523186  0.81018511  0.02418001     0.39900
N1405       N  0.62951115  0.76162765  0.97837035    -0.38200
N1406       N  0.63174335  0.81680614  0.99730881    -0.39800
N1407       N  0.52395305  0.73345772  0.94448611    -0.37500
N1408       N  0.52194471  0.78175155  0.96885434    -0.39900
N1409       N  0.54033669  0.75733764  0.01112549    -0.39700
N1410       N  0.53407179  0.80395874  0.03468554    -0.37300
N1411       N  0.60730412  0.89328182  0.98560882    -0.38400
N1412       N  0.61234774  0.84571502  0.96207717    -0.40000
C1413       C  0.43513132  0.86839339  0.97300177    -0.05000
C1414       C  0.45090673  0.88852486  0.98122096     0.09200
C1415       C  0.44936357  0.90882871  0.98081292    -0.02400
C1416       C  0.43227902  0.90912714  0.97203720    -0.00600
C1417       C  0.41663455  0.88904458  0.96365640    -0.04200
C1418       C  0.41788794  0.86854384  0.96436919     0.02800
C1419       C  0.46988625  0.88860798  0.98976084     0.09600
C1420       C  0.46595152  0.92968740  0.98903340     0.35500
C1421       C  0.40108253  0.84733931  0.95648618     0.38900
C1422       C  0.48968689  0.89115125  0.98255794    -0.04600
C1423       C  0.50718560  0.89012220  0.99036659     0.02600
C1424       C  0.50532435  0.88708001  0.00561749    -0.04200
C1425       C  0.48531223  0.88460113  0.01281584    -0.00400
C1426       C  0.46772938  0.88539265  0.00487756    -0.03000
C1427       C  0.49198824  0.89482104  0.96700220     0.36300
C1428       C  0.48267580  0.88154169  0.02840415     0.39900
C1429       C  0.52665108  0.89146840  0.98246519     0.39000
C1430       C  0.44737087  0.88298485  0.01225827     0.35900
C1431       C  0.43711639  0.84773012  0.97313463     0.36600
C1432       C  0.43163787  0.93052373  0.97110062     0.39900
N1433       N  0.54212275  0.89250573  0.97612590    -0.38200
N1434       N  0.49372873  0.89769021  0.95459951    -0.39800
N1435       N  0.48039431  0.87898141  0.04082086    -0.37500
N1436       N  0.43121220  0.88121159  0.01814885    -0.39900
N1437       N  0.47922606  0.94629683  0.99559632    -0.39700
N1438       N  0.43115620  0.94760072  0.97030530    -0.37300
N1439       N  0.38761360  0.83040868  0.95024577    -0.38400
N1440       N  0.43895705  0.83141125  0.97311049    -0.40000
C1441       C  0.84674964  0.53995983  0.12156999    -0.05000
C1442       C  0.84618112  0.52724625  0.10924641     0.09200
C1443       C  0.83143941  0.50245646  0.10921922    -0.02400
C1444       C  0.81878017  0.49025320  0.12175769    -0.00600
C1445       C  0.82192026  0.50257409  0.13505494    -0.04200
C1446       C  0.83394929  0.52777594  0.13420650     0.02800
C1447       C  0.85963153  0.53944206  0.09572054     0.09600
C1448       C  0.82904958  0.48943367  0.09603128     0.35500
C1449       C  0.83080164  0.54123750  0.14529075     0.38900
C1450       C  0.87976692  0.53878770  0.09198419    -0.04600
C1451       C  0.88908016  0.54471695  0.07783944     0.02600
C1452       C  0.87825280  0.55120851  0.06729069    -0.04200
C1453       C  0.85951516  0.55405518  0.07140188    -0.00400
C1454       C  0.85001748  0.54785193  0.08553879    -0.03000
C1455       C  0.88998974  0.53056176  0.10245971     0.36300
C1456       C  0.84908772  0.56205016  0.06092165     0.39900
C1457       C  0.90982706  0.54407607  0.07408322     0.39000
C1458       C  0.82927657  0.54845377  0.08932088     0.35900
C1459       C  0.86010723  0.56563130  0.12109584     0.36600
C1460       C  0.80178254  0.46507518  0.12031973     0.39900
N1461       N  0.92643193  0.54373499  0.07099866    -0.38200
N1462       N  0.89807623  0.52384003  0.11076242    -0.39800
N1463       N  0.84080143  0.56860189  0.05264727    -0.37500
N1464       N  0.81266776  0.54879846  0.09238378    -0.39900
N1465       N  0.82723804  0.47917960  0.08551013    -0.39700
N1466       N  0.78871386  0.44506330  0.11838422    -0.37300
N1467       N  0.82818059  0.55216210  0.15397927    -0.38400
N1468       N  0.87067481  0.58611377  0.12068921    -0.40000
C1469       C  0.84303370  0.51143110  0.21172164    -0.05000
C1470       C  0.82418677  0.50415189  0.22160908     0.09200
C1471       C  0.80093651  0.49322332  0.21620422    -0.02400
C1472       C  0.79667259  0.49030276  0.20121133    -0.00600
C1473       C  0.81510312  0.49540622  0.19140616    -0.04200
C1474       C  0.83839682  0.50597976  0.19680773     0.02800
C1475       C  0.82811127  0.50721189  0.23772896     0.09600
C1476       C  0.78107130  0.48430330  0.22612034     0.35500
C1477       C  0.85745571  0.51011005  0.18725421     0.38900
C1478       C  0.82105869  0.52070653  0.24559313    -0.04600
C1479       C  0.81825212  0.51820176  0.26075905     0.02600
C1480       C  0.82348470  0.50308331  0.26818896    -0.04200
C1481       C  0.83515751  0.49376413  0.26075696    -0.00400
C1482       C  0.83623696  0.49454657  0.24548317    -0.03000
C1483       C  0.81550401  0.53621492  0.23800396     0.36300
C1484       C  0.84731700  0.48483361  0.26891896     0.39900
C1485       C  0.81033357  0.53143482  0.26873204     0.39000
C1486       C  0.84450851  0.48129282  0.23784575     0.35900
C1487       C  0.86718997  0.52438351  0.21686906     0.36600
C1488       C  0.77321547  0.48276339  0.19608902     0.39900
N1489       N  0.80457002  0.54251309  0.27506562    -0.38200
N1490       N  0.81088082  0.54847273  0.23199052    -0.39800
N1491       N  0.85739498  0.47808530  0.27542584    -0.37500
N1492       N  0.85116922  0.47077936  0.23172137    -0.39900
N1493       N  0.76523521  0.47720348  0.23399546    -0.39700
N1494       N  0.75428913  0.47711725  0.19266994    -0.37300
N1495       N  0.87261517  0.51322896  0.17963627    -0.38400
N1496       N  0.88650059  0.53468959  0.22093191    -0.40000
C1497       C  0.72488512  0.21332223  0.12709183    -0.05000
C1498       C  0.70461539  0.20023893  0.11845714     0.09200
C1499       C  0.68227753  0.19206427  0.12461634    -0.02400
C1500       C  0.68049681  0.19985125  0.13848063    -0.00600
C1501       C  0.70105333  0.21754860  0.14573680    -0.04200
C1502       C  0.72296404  0.22103412  0.14098985     0.02800
C1503       C  0.70643818  0.19592772  0.10272305     0.09600
C1504       C  0.66112104  0.17624194  0.11642973     0.35500
C1505       C  0.74344612  0.23208324  0.15037072     0.38900
C1506       C  0.70846962  0.17686242  0.09820077    -0.04600
C1507       C  0.70651774  0.17087412  0.08335771     0.02600
C1508       C  0.70299835  0.18427900  0.07291018    -0.04200
C1509       C  0.70240871  0.20425146  0.07745558    -0.00400
C1510       C  0.70404055  0.20996201  0.09227728    -0.03000
C1511       C  0.71213517  0.16318061  0.10888101     0.36300
C1512       C  0.70035929  0.21917893  0.06688174     0.39900
C1513       C  0.70669211  0.15005741  0.07900728     0.39000
C1514       C  0.70293971  0.23018946  0.09687563     0.35900
C1515       C  0.74777189  0.21967100  0.12145493     0.36600
C1516       C  0.65774389  0.18806833  0.14561341     0.39900
N1517       N  0.70669895  0.13336016  0.07556512    -0.38200
N1518       N  0.71530420  0.15244467  0.11741647    -0.39800
N1519       N  0.69875189  0.23109557  0.05844686    -0.37500
N1520       N  0.70206141  0.24628351  0.10061065    -0.39900
N1521       N  0.64431543  0.16372695  0.10981298    -0.39700
N1522       N  0.63934639  0.17793750  0.15105171    -0.37300
N1523       N  0.76002675  0.24098457  0.15766190    -0.38400
N1524       N  0.76606247  0.22475034  0.11698262    -0.40000
C1525       C  0.76121891  0.34067149  0.17663726    -0.05000
C1526       C  0.76908405  0.35252607  0.16320739     0.09200
C1527       C  0.76482000  0.33911662  0.15051372    -0.02400
C1528       C  0.74892953  0.31439874  0.15080568    -0.00600
C1529       C  0.74043472  0.30229187  0.16426588    -0.04200
C1530       C  0.74839511  0.31570435  0.17719896     0.02800
C1531       C  0.77879278  0.37861244  0.16213810     0.09600
C1532       C  0.77570802  0.35100981  0.13695951     0.35500
C1533       C  0.74349777  0.30414034  0.19117699     0.38900
C1534       C  0.79995919  0.39536190  0.16922329    -0.04600
C1535       C  0.80696901  0.41943657  0.16976576     0.02600
C1536       C  0.79406953  0.42721319  0.16213425    -0.04200
C1537       C  0.77409726  0.41079779  0.15398395    -0.00400
C1538       C  0.76601371  0.38658578  0.15442091    -0.03000
C1539       C  0.81476344  0.38789948  0.17563509     0.36300
C1540       C  0.76094969  0.41830764  0.14548985     0.39900
C1541       C  0.82714850  0.43612857  0.17837635     0.39000
C1542       C  0.74435569  0.37005084  0.14682585     0.35900
C1543       C  0.76522235  0.35402288  0.18986882     0.36600
C1544       C  0.73947663  0.30236746  0.13711727     0.39900
N1545       N  0.84307986  0.44942384  0.18538527    -0.38200
N1546       N  0.82661933  0.38190504  0.18065104    -0.39800
N1547       N  0.74970219  0.42329905  0.13866470    -0.37500
N1548       N  0.72733894  0.35751232  0.14038697    -0.39900
N1549       N  0.78440276  0.36052380  0.12617375    -0.39700
N1550       N  0.73187376  0.29295588  0.12616000    -0.37300
N1551       N  0.74000787  0.29547484  0.20249879    -0.38400
N1552       N  0.76840162  0.36462021  0.20044004    -0.40000
C1553       C  0.73295078  0.34482858  0.29966040    -0.05000
C1554       C  0.75517975  0.35779698  0.30616940     0.09200
C1555       C  0.76436594  0.34581326  0.31324895    -0.02400
C1556       C  0.75158971  0.32072347  0.31349353    -0.00600
C1557       C  0.72830223  0.30703111  0.30753667    -0.04200
C1558       C  0.71922062  0.31993229  0.30075268     0.02800
C1559       C  0.76901402  0.38423393  0.30503832     0.09600
C1560       C  0.78743302  0.35953928  0.31999165     0.35500
C1561       C  0.69600084  0.30884828  0.29442746     0.38900
C1562       C  0.76572049  0.39775787  0.31533943    -0.04600
C1563       C  0.77602421  0.42229829  0.31321420     0.02600
C1564       C  0.79016518  0.43374426  0.30074578    -0.04200
C1565       C  0.79288948  0.41979041  0.29030652    -0.00400
C1566       C  0.78283845  0.39530633  0.29265070    -0.03000
C1567       C  0.75113610  0.38615909  0.32798242     0.36300
C1568       C  0.80361236  0.42949895  0.27639288     0.39900
C1569       C  0.77048439  0.43521591  0.32344683     0.39000
C1570       C  0.78592600  0.38112048  0.28201751     0.35900
C1571       C  0.72426780  0.35721754  0.29136482     0.36600
C1572       C  0.76376580  0.30983269  0.31915324     0.39900
N1573       N  0.76595391  0.44535865  0.33165149    -0.38200
N1574       N  0.73953264  0.37685383  0.33805778    -0.39800
N1575       N  0.81083819  0.43550027  0.26478046    -0.37500
N1576       N  0.78835341  0.36971913  0.27359968    -0.39900
N1577       N  0.80579077  0.37057787  0.32538557    -0.39700
N1578       N  0.77453296  0.30237823  0.32389736    -0.37300
N1579       N  0.67833330  0.30211922  0.28849494    -0.38400
N1580       N  0.71687343  0.36636898  0.28452074    -0.40000
C1581       C  0.68977311  0.22009376  0.25333020    -0.05000
C1582       C  0.70470101  0.24047589  0.24500953     0.09200
C1583       C  0.72067329  0.26200558  0.25196284    -0.02400
C1584       C  0.72095747  0.26344484  0.26716246    -0.00600
C1585       C  0.70470843  0.24356200  0.27548267    -0.04200
C1586       C  0.68978874  0.22158616  0.26855573     0.02800
C1587       C  0.70249545  0.23983285  0.22891176     0.09600
C1588       C  0.73628966  0.28292266  0.24343487     0.35500
C1589       C  0.67395180  0.20065671  0.27700456     0.38900
C1590       C  0.68486289  0.24237636  0.22254845    -0.04600
C1591       C  0.68369825  0.24381214  0.20738116     0.02600
C1592       C  0.69976492  0.24185816  0.19832372    -0.04200
C1593       C  0.71753735  0.23937412  0.20487005    -0.00400
C1594       C  0.71890016  0.23846443  0.22008263    -0.03000
C1595       C  0.66826424  0.24427259  0.23173029     0.36300
C1596       C  0.73575010  0.23976089  0.19612707     0.39900
C1597       C  0.66631413  0.24822711  0.20153883     0.39000
C1598       C  0.73774264  0.23702737  0.22674630     0.35900
C1599       C  0.67384658  0.19779704  0.24616215     0.36600
C1600       C  0.73844621  0.28529075  0.27419066     0.39900
N1601       N  0.65237381  0.25242942  0.19790891    -0.38200
N1602       N  0.65501095  0.24578375  0.23899998    -0.39800
N1603       N  0.75055481  0.24022310  0.18935498    -0.37500
N1604       N  0.75286411  0.23611033  0.23212217    -0.39900
N1605       N  0.74875009  0.29965316  0.23667351    -0.39700
N1606       N  0.75278482  0.30278056  0.27955946    -0.37300
N1607       N  0.66151932  0.18390815  0.28376435    -0.38400
N1608       N  0.66109356  0.18001445  0.24044480    -0.40000
C1609       C  0.50377296  0.35456972  0.09886164    -0.05000
C1610       C  0.49727290  0.33216158  0.10431914     0.09200
C1611       C  0.48271721  0.31174158  0.09598369    -0.02400
C1612       C  0.47694984  0.31392288  0.08158338    -0.00600
C1613       C  0.48575709  0.33666943  0.07550865    -0.04200
C1614       C  0.49787771  0.35684175  0.08457586     0.02800
C1615       C  0.50997995  0.33082653  0.11725597     0.09600
C1616       C  0.47491529  0.28860693  0.10200639     0.35500
C1617       C  0.50477575  0.38012643  0.07918342     0.38900
C1618       C  0.50072864  0.32760866  0.13132481    -0.04600
C1619       C  0.51410957  0.32836592  0.14347327     0.02600
C1620       C  0.53754768  0.33331253  0.14164574    -0.04200
C1621       C  0.54546189  0.33418039  0.12706271    -0.00400
C1622       C  0.53198434  0.33337030  0.11515043    -0.03000
C1623       C  0.47704128  0.32286361  0.13319180     0.36300
C1624       C  0.56760563  0.33586672  0.12386795     0.39900
C1625       C  0.50231568  0.32185224  0.15735194     0.39000
C1626       C  0.54082725  0.33519444  0.10049270     0.35900
C1627       C  0.51791220  0.37547760  0.10770115     0.36600
C1628       C  0.46339311  0.29281675  0.07283736     0.39900
N1629       N  0.49190694  0.31632937  0.16814360    -0.38200
N1630       N  0.45807107  0.31888480  0.13465414    -0.39800
N1631       N  0.58532501  0.33764939  0.12095907    -0.37500
N1632       N  0.54776977  0.33659714  0.08882047    -0.39900
N1633       N  0.46867403  0.27018770  0.10689108    -0.39700
N1634       N  0.45255443  0.27590765  0.06590660    -0.37300
N1635       N  0.51030609  0.39870862  0.07489791    -0.38400
N1636       N  0.52926140  0.39210149  0.11477261    -0.40000
C1637       C  0.66137827  0.39045276  0.15225466    -0.05000
C1638       C  0.66997427  0.41120594  0.16063761     0.09200
C1639       C  0.65378216  0.41550747  0.16760671    -0.02400
C1640       C  0.62930153  0.39884560  0.16647619    -0.00600
C1641       C  0.62110594  0.37667992  0.15989822    -0.04200
C1642       C  0.63711601  0.37288590  0.15230308     0.02800
C1643       C  0.69601870  0.42677740  0.16325701     0.09600
C1644       C  0.66226728  0.43620332  0.17670170     0.35500
C1645       C  0.62876095  0.35102070  0.14445606     0.38900
C1646       C  0.70938856  0.45000570  0.15774018    -0.04600
C1647       C  0.73419586  0.46322823  0.15918918     0.02600
C1648       C  0.74623612  0.45231697  0.16434425    -0.04200
C1649       C  0.73237254  0.42959004  0.17107198    -0.00400
C1650       C  0.70751858  0.41752302  0.17094905    -0.03000
C1651       C  0.69774365  0.46020142  0.15030604     0.36300
C1652       C  0.74260111  0.41761646  0.17803492     0.39900
C1653       C  0.74703821  0.48850412  0.15633768     0.39000
C1654       C  0.69349278  0.39507973  0.17855939     0.35900
C1655       C  0.67771122  0.38690909  0.14393611     0.36600
C1656       C  0.61255958  0.40403413  0.17263562     0.39900
N1657       N  0.75730054  0.50871887  0.15426680    -0.38200
N1658       N  0.68849483  0.46840009  0.14438359    -0.39800
N1659       N  0.74970307  0.40728705  0.18391408    -0.37500
N1660       N  0.68227915  0.37727065  0.18463917    -0.39900
N1661       N  0.66906456  0.45265478  0.18403141    -0.39700
N1662       N  0.59912135  0.40808093  0.17751948    -0.37300
N1663       N  0.62263370  0.33377914  0.13806367    -0.38400
N1664       N  0.69080164  0.38417098  0.13732936    -0.40000
C1665       C  0.59684428  0.27920173  0.17941864    -0.05000
C1666       C  0.60300125  0.27227351  0.16664322     0.09200
C1667       C  0.59354802  0.27354239  0.15335124    -0.02400
C1668       C  0.58084538  0.28493044  0.15247217    -0.00600
C1669       C  0.57796924  0.29557734  0.16500581    -0.04200
C1670       C  0.58392621  0.29038208  0.17863601     0.02800
C1671       C  0.62220913  0.26719722  0.16672546     0.09600
C1672       C  0.59809785  0.26418795  0.14042647     0.35500
C1673       C  0.57632180  0.29584757  0.19193614     0.38900
C1674       C  0.61721797  0.24396215  0.16825082    -0.04600
C1675       C  0.63568186  0.23957299  0.16749255     0.02600
C1676       C  0.65924026  0.25842224  0.16491586    -0.04200
C1677       C  0.66407074  0.28175837  0.16381602    -0.00400
C1678       C  0.64566221  0.28608705  0.16468744    -0.03000
C1679       C  0.59314313  0.22472513  0.17090252     0.36300
C1680       C  0.68789490  0.30167849  0.16193720     0.39900
C1681       C  0.63077203  0.21621904  0.17113245     0.39000
C1682       C  0.65084422  0.31015013  0.16349233     0.35900
C1683       C  0.60458063  0.27558937  0.19330139     0.36600
C1684       C  0.57158705  0.28589696  0.13850481     0.39900
N1685       N  0.62671908  0.19773255  0.17459385    -0.38200
N1686       N  0.57391397  0.20941832  0.17305002    -0.39800
N1687       N  0.70655360  0.31836955  0.16068655    -0.37500
N1688       N  0.65502107  0.32932867  0.16259219    -0.39900
N1689       N  0.60175783  0.25666831  0.13016809    -0.39700
N1690       N  0.56397555  0.28578361  0.12724223    -0.37300
N1691       N  0.57027090  0.29965496  0.20276519    -0.38400
N1692       N  0.61065132  0.27265010  0.20439724    -0.40000
C1693       C  0.65869252  0.42076559  0.28483684    -0.05000
C1694       C  0.67417791  0.43093238  0.29666323     0.09200
C1695       C  0.66474666  0.42826817  0.31068610    -0.02400
C1696       C  0.64017037  0.41341214  0.31305576    -0.00600
C1697       C  0.62496571  0.39988145  0.30144996    -0.04200
C1698       C  0.63421243  0.40561031  0.28721662     0.02800
C1699       C  0.70036831  0.44317474  0.29448789     0.09600
C1700       C  0.68054007  0.43958574  0.32286027     0.35500
C1701       C  0.61853931  0.39711718  0.27490659     0.38900
C1702       C  0.71512202  0.46791589  0.29584683    -0.04600
C1703       C  0.73990685  0.47897080  0.29492782     0.02600
C1704       C  0.75036589  0.46537146  0.29272970    -0.04200
C1705       C  0.73510921  0.44094058  0.28943538    -0.00400
C1706       C  0.71042123  0.42979773  0.29102063    -0.03000
C1707       C  0.70471695  0.48195378  0.29842431     0.36300
C1708       C  0.74389125  0.42716288  0.28329443     0.39900
C1709       C  0.75440362  0.50457597  0.29547662     0.39000
C1710       C  0.69523554  0.40428426  0.28937786     0.35900
C1711       C  0.66808556  0.42539326  0.27021369     0.36600
C1712       C  0.63127916  0.41194460  0.32756666     0.39900
N1713       N  0.76538968  0.52504918  0.29580801    -0.38200
N1714       N  0.69635348  0.49306633  0.30057123    -0.39800
N1715       N  0.74979759  0.41573143  0.27754913    -0.37500
N1716       N  0.68300689  0.38397832  0.28809147    -0.39900
N1717       N  0.69314901  0.44858843  0.33255912    -0.39700
N1718       N  0.62476241  0.41183558  0.33919503    -0.37300
N1719       N  0.60649864  0.39112461  0.26483877    -0.38400
N1720       N  0.67557455  0.42899042  0.25855424    -0.40000
C1721       C  0.59133548  0.28095720  0.30780712    -0.05000
C1722       C  0.61601321  0.29131346  0.30802764     0.09200
C1723       C  0.63101022  0.31620868  0.30898225    -0.02400
C1724       C  0.62144884  0.33058881  0.30948922    -0.00600
C1725       C  0.59689408  0.32043111  0.30840927    -0.04200
C1726       C  0.58176913  0.29543460  0.30802145     0.02800
C1727       C  0.62649096  0.27624988  0.30817261     0.09600
C1728       C  0.65640546  0.32720576  0.30999830     0.35500
C1729       C  0.55637867  0.28458757  0.30725483     0.38900
C1730       C  0.62705798  0.26467780  0.29549677    -0.04600
C1731       C  0.64034427  0.25378040  0.29520706     0.02600
C1732       C  0.65450362  0.25602233  0.30717039    -0.04200
C1733       C  0.65300573  0.26674493  0.32007067    -0.00400
C1734       C  0.63806062  0.27561453  0.32073647    -0.03000
C1735       C  0.61556232  0.26562296  0.28244981     0.36300
C1736       C  0.66811520  0.27049669  0.33236232     0.39900
C1737       C  0.64072392  0.24162534  0.28229884     0.39000
C1738       C  0.63531174  0.28508515  0.33423307     0.35900
C1739       C  0.57580962  0.25539743  0.30749758     0.36600
C1740       C  0.63695757  0.35555543  0.31254911     0.39900
N1741       N  0.64106559  0.23182762  0.27205433    -0.38200
N1742       N  0.60652069  0.26657357  0.27202477    -0.39800
N1743       N  0.68019335  0.27366452  0.34217502    -0.37500
N1744       N  0.63300357  0.29256968  0.34497641    -0.39900
N1745       N  0.67665320  0.33641025  0.31111978    -0.39700
N1746       N  0.65013367  0.37515506  0.31548827    -0.37300
N1747       N  0.53614248  0.27601171  0.30663079    -0.38400
N1748       N  0.56344339  0.23499496  0.30721440    -0.40000
C1749       C  0.56499321  0.32738812  0.25052592    -0.05000
C1750       C  0.55820257  0.34142127  0.24325694     0.09200
C1751       C  0.55235184  0.35548944  0.25140624    -0.02400
C1752       C  0.55403302  0.35611962  0.26672717    -0.00600
C1753       C  0.56209041  0.34296944  0.27407846    -0.04200
C1754       C  0.56723134  0.32833512  0.26575194     0.02800
C1755       C  0.55937407  0.34272424  0.22698010     0.09600
C1756       C  0.54590343  0.37036043  0.24391309     0.35500
C1757       C  0.57552227  0.31444316  0.27244005     0.38900
C1758       C  0.53966337  0.32696279  0.21852008    -0.04600
C1759       C  0.54183851  0.32603835  0.20330997     0.02600
C1760       C  0.56382357  0.34120214  0.19625388    -0.04200
C1761       C  0.58371163  0.35642316  0.20500504    -0.00400
C1762       C  0.58122133  0.35773678  0.22010518    -0.03000
C1763       C  0.51725531  0.31109604  0.22558330     0.36300
C1764       C  0.60740917  0.36944765  0.19915686     0.39900
C1765       C  0.52209873  0.30733556  0.19527789     0.39000
C1766       C  0.60160202  0.37433681  0.22865364     0.35900
C1767       C  0.57051878  0.31242628  0.24221257     0.36600
C1768       C  0.54993960  0.37236106  0.27468916     0.39900
N1769       N  0.50643763  0.29203000  0.18902185    -0.38200
N1770       N  0.49936358  0.29845665  0.23121732    -0.39800
N1771       N  0.62695833  0.37942314  0.19552810    -0.37500
N1772       N  0.61822040  0.38785936  0.23507809    -0.39900
N1773       N  0.54091336  0.38231825  0.23787951    -0.39700
N1774       N  0.54690980  0.38556325  0.28095420    -0.37300
N1775       N  0.58258013  0.30303494  0.27669873    -0.38400
N1776       N  0.57498842  0.30044116  0.23572950    -0.40000
C1777       C  0.20677279  0.48474539  0.87551300    -0.05000
C1778       C  0.20239907  0.49997653  0.86738387     0.09200
C1779       C  0.18775224  0.50727592  0.87322154    -0.02400
C1780       C  0.17846851  0.50035216  0.88731973    -0.00600
C1781       C  0.18415451  0.48644405  0.89589653    -0.04200
C1782       C  0.19793716  0.47820990  0.88980150     0.02800
C1783       C  0.21603869  0.51141304  0.85373875     0.09600
C1784       C  0.18308094  0.52283853  0.86491772     0.35500
C1785       C  0.20453048  0.46453501  0.89853793     0.38900
C1786       C  0.20625416  0.50262903  0.83999282    -0.04600
C1787       C  0.21825126  0.51521161  0.82722312     0.02600
C1788       C  0.24123919  0.53621187  0.82798704    -0.04200
C1789       C  0.25016749  0.54536373  0.84219866    -0.00400
C1790       C  0.23791108  0.53281576  0.85477148    -0.03000
C1791       C  0.18327036  0.48087116  0.83907018     0.36300
C1792       C  0.27155862  0.56845431  0.84430012     0.39900
C1793       C  0.20509860  0.50767198  0.81384038     0.39000
C1794       C  0.24749803  0.54238082  0.86901104     0.35900
C1795       C  0.22106489  0.47650401  0.86928886     0.36600
C1796       C  0.16312037  0.50774446  0.89302887     0.39900
N1797       N  0.19368117  0.50113406  0.80347027    -0.38200
N1798       N  0.16496109  0.46349231  0.83834017    -0.39800
N1799       N  0.28866465  0.58668840  0.84619799    -0.37500
N1800       N  0.25498688  0.54990560  0.88037332    -0.39900
N1801       N  0.17940448  0.53532175  0.85833428    -0.39700
N1802       N  0.15088894  0.51359117  0.89764581    -0.37300
N1803       N  0.20996256  0.45379586  0.90555044    -0.38400
N1804       N  0.23237071  0.46985202  0.86424727    -0.40000
C1805       C  0.24518163  0.53045612  0.71667208    -0.05000
C1806       C  0.24999281  0.54986745  0.72542538     0.09200
C1807       C  0.25386871  0.57062688  0.71872817    -0.02400
C1808       C  0.25487135  0.57277374  0.70348229    -0.00600
C1809       C  0.25190677  0.55405195  0.69453895    -0.04200
C1810       C  0.24602043  0.53243176  0.70133358     0.02800
C1811       C  0.25285375  0.54940775  0.74161432     0.09600
C1812       C  0.25734236  0.59023603  0.72755370     0.35500
C1813       C  0.24374347  0.51307846  0.69283019     0.38900
C1814       C  0.27527640  0.55711108  0.74749872    -0.04600
C1815       C  0.27894092  0.55939360  0.76265685     0.02600
C1816       C  0.26009929  0.55377451  0.77227383    -0.04200
C1817       C  0.23756313  0.54605233  0.76627254    -0.00400
C1818       C  0.23397479  0.54367320  0.75108485    -0.03000
C1819       C  0.29501672  0.56372335  0.73786986     0.36300
C1820       C  0.21862808  0.54307802  0.77552104     0.39900
C1821       C  0.30258692  0.56862573  0.76803553     0.39000
C1822       C  0.21104395  0.53634698  0.74510147     0.35900
C1823       C  0.24039747  0.50874380  0.72351179     0.36600
C1824       C  0.25917324  0.59471125  0.69734383     0.39900
N1825       N  0.32195872  0.57658917  0.77157277    -0.38200
N1826       N  0.31100365  0.56921844  0.73036924    -0.39800
N1827       N  0.20357602  0.54112029  0.78278985    -0.37500
N1828       N  0.19277891  0.53057385  0.74029362    -0.39900
N1829       N  0.26001815  0.60615367  0.73424007    -0.39700
N1830       N  0.26274781  0.61283523  0.69347007    -0.37300
N1831       N  0.24245474  0.49751042  0.68644298    -0.38400
N1832       N  0.23657476  0.49140780  0.72896616    -0.40000
C1833       C  0.35871048  0.59650096  0.65810172    -0.05000
C1834       C  0.36627154  0.59809238  0.67251473     0.09200
C1835       C  0.34963542  0.58523211  0.68344072    -0.02400
C1836       C  0.32534579  0.57362724  0.68034758    -0.00600
C1837       C  0.31763591  0.57497419  0.66633260    -0.04200
C1838       C  0.33442766  0.58442593  0.65492677     0.02800
C1839       C  0.39127792  0.61597680  0.67623829     0.09600
C1840       C  0.35761442  0.58485518  0.69798020     0.35500
C1841       C  0.32730684  0.58345658  0.64002056     0.38900
C1842       C  0.39686686  0.63794073  0.68188963    -0.04600
C1843       C  0.42035149  0.65739964  0.68167525     0.02600
C1844       C  0.43877258  0.65483771  0.67600470    -0.04200
C1845       C  0.43312103  0.63145096  0.67263316    -0.00400
C1846       C  0.40943807  0.61235497  0.67240679    -0.03000
C1847       C  0.37813400  0.64076422  0.68745948     0.36300
C1848       C  0.45143171  0.62646823  0.66978712     0.39900
C1849       C  0.42435249  0.67976480  0.68684771     0.39000
C1850       C  0.40353262  0.58898477  0.66783977     0.35900
C1851       C  0.37595266  0.60921353  0.64672301     0.36600
C1852       C  0.30859322  0.55942727  0.69150355     0.39900
N1853       N  0.42643845  0.69702490  0.69129433    -0.38200
N1854       N  0.36334908  0.64303801  0.69208097    -0.39800
N1855       N  0.46590452  0.62230328  0.66755090    -0.37500
N1856       N  0.39873265  0.57033570  0.66416864    -0.39900
N1857       N  0.36396369  0.58456703  0.70958127    -0.39700
N1858       N  0.29623238  0.54779085  0.70076857    -0.37300
N1859       N  0.32233535  0.58258056  0.62795310    -0.38400
N1860       N  0.38973595  0.61949078  0.63770690    -0.40000
C1861       C  0.57939016  0.71654967  0.87681303    -0.05000
C1862       C  0.55837677  0.71477896  0.87229685     0.09200
C1863       C  0.54092629  0.71041293  0.88258660    -0.02400
C1864       C  0.54400547  0.70696209  0.89726523    -0.00600
C1865       C  0.56484751  0.70816119  0.90188273    -0.04200
C1866       C  0.58270319  0.71334338  0.89155919     0.02800
C1867       C  0.55335915  0.71563268  0.85660773     0.09600
C1868       C  0.51947384  0.70902365  0.87794011     0.35500
C1869       C  0.60397695  0.71416827  0.89588191     0.38900
C1870       C  0.54272868  0.69474252  0.84832171    -0.04600
C1871       C  0.53290136  0.69408797  0.83470778     0.02600
C1872       C  0.53133968  0.71355575  0.83005721    -0.04200
C1873       C  0.54666593  0.73573246  0.83685586    -0.00400
C1874       C  0.55701471  0.73659874  0.85034964    -0.03000
C1875       C  0.54091851  0.67360927  0.85413605     0.36300
C1876       C  0.55240280  0.75767486  0.82988657     0.39900
C1877       C  0.52578861  0.67396783  0.82531572     0.39000
C1878       C  0.57067129  0.75881555  0.85806592     0.35900
C1879       C  0.59733343  0.72115392  0.86618675     0.36600
C1880       C  0.52553078  0.70218589  0.90754592     0.39900
N1881       N  0.52013357  0.65777410  0.81794286    -0.38200
N1882       N  0.53941885  0.65676755  0.85885315    -0.39800
N1883       N  0.55704225  0.77523558  0.82436356    -0.37500
N1884       N  0.58161155  0.77654528  0.86422920    -0.39900
N1885       N  0.50245021  0.70798725  0.87415999    -0.39700
N1886       N  0.51066887  0.69819632  0.91567914    -0.37300
N1887       N  0.62093726  0.71477249  0.89930799    -0.38400
N1888       N  0.61161423  0.72479031  0.85768351    -0.40000
C1889       C  0.41093892  0.63176106  0.82016144    -0.05000
C1890       C  0.39898424  0.62680837  0.80686603     0.09200
C1891       C  0.41195427  0.63687816  0.79406165    -0.02400
C1892       C  0.43661144  0.65306326  0.79466458    -0.00600
C1893       C  0.44829843  0.66080619  0.80820068    -0.04200
C1894       C  0.43531730  0.64899918  0.82096979     0.02800
C1895       C  0.37255280  0.61346204  0.80670214     0.09600
C1896       C  0.39969965  0.63128293  0.78030499     0.35500
C1897       C  0.44612223  0.65525461  0.83518770     0.38900
C1898       C  0.36110052  0.62524688  0.81083454    -0.04600
C1899       C  0.33628979  0.61302256  0.81117536     0.02600
C1900       C  0.32259016  0.58918632  0.80668245    -0.04200
C1901       C  0.33402880  0.57696877  0.80334529    -0.00400
C1902       C  0.35897689  0.58914364  0.80326210    -0.03000
C1903       C  0.37497154  0.64994953  0.81513141     0.36300
C1904       C  0.32013220  0.55188170  0.80004349     0.39900
C1905       C  0.32522578  0.62441472  0.81774997     0.39000
C1906       C  0.37073681  0.57667081  0.79988602     0.35900
C1907       C  0.39772001  0.61977302  0.83316440     0.36600
C1908       C  0.44982827  0.66116443  0.78124223     0.39900
N1909       N  0.31756663  0.63412670  0.82370335    -0.38200
N1910       N  0.38603027  0.66959856  0.81862108    -0.39800
N1911       N  0.30898301  0.53186605  0.79740100    -0.37500
N1912       N  0.38021099  0.56676843  0.79724505    -0.39900
N1913       N  0.38984983  0.62686442  0.76935904    -0.39700
N1914       N  0.45999918  0.66721835  0.77038293    -0.37300
N1915       N  0.45443601  0.66009322  0.84662139    -0.38400
N1916       N  0.38712837  0.61011794  0.84348955    -0.40000
C1917       C  0.50438666  0.72497258  0.75246432    -0.05000
C1918       C  0.51597437  0.71433731  0.74656772     0.09200
C1919       C  0.52504687  0.70438006  0.75589917    -0.02400
C1920       C  0.52120480  0.70361378  0.77099435    -0.00600
C1921       C  0.50914928  0.71396536  0.77712681    -0.04200
C1922       C  0.50072121  0.72461121  0.76755546     0.02800
C1923       C  0.51542931  0.71071121  0.73050039     0.09600
C1924       C  0.53789166  0.69434055  0.74983674     0.35500
C1925       C  0.48696398  0.73415151  0.77265250     0.38900
C1926       C  0.52970761  0.72975597  0.72106080    -0.04600
C1927       C  0.52606483  0.72691631  0.70592452     0.02600
C1928       C  0.50764757  0.70522418  0.70019271    -0.04200
C1929       C  0.49496219  0.68564381  0.70959931    -0.00400
C1930       C  0.49884607  0.68836640  0.72465185    -0.03000
C1931       C  0.54763633  0.75243061  0.72700315     0.36300
C1932       C  0.47818333  0.66234927  0.70398775     0.39900
C1933       C  0.54104241  0.74645880  0.69633335     0.39000
C1934       C  0.48525859  0.66817933  0.73418850     0.35900
C1935       C  0.49556976  0.73581297  0.74283282     0.36600
C1936       C  0.52798128  0.69021396  0.77986901     0.39900
N1937       N  0.55328371  0.76218616  0.68880659    -0.38200
N1938       N  0.56186087  0.77053484  0.73179345    -0.39800
N1939       N  0.46483469  0.64317702  0.70029491    -0.37500
N1940       N  0.47458843  0.65197747  0.74172333    -0.39900
N1941       N  0.54816434  0.68637993  0.74498974    -0.39700
N1942       N  0.53346645  0.67944143  0.78679787    -0.37300
N1943       N  0.47508888  0.74129912  0.77571776    -0.38400
N1944       N  0.48873660  0.74461264  0.73516243    -0.40000
C1945       C  0.42554893  0.77534742  0.65307088    -0.05000
C1946       C  0.42821867  0.76671596  0.66635923     0.09200
C1947       C  0.41546973  0.76677849  0.67845658    -0.02400
C1948       C  0.40059146  0.77590660  0.67743494    -0.00600
C1949       C  0.39632209  0.78319298  0.66376650    -0.04200
C1950       C  0.40855100  0.78169253  0.65147697     0.02800
C1951       C  0.44220749  0.75492054  0.66715277     0.09600
C1952       C  0.41714220  0.75664273  0.69200040     0.35500
C1953       C  0.40250311  0.78423648  0.63680802     0.38900
C1954       C  0.46332468  0.76486783  0.67524355    -0.04600
C1955       C  0.47578270  0.75309264  0.67616785     0.02600
C1956       C  0.46730140  0.73129877  0.66899534    -0.04200
C1957       C  0.44617389  0.72144747  0.66089137    -0.00400
C1958       C  0.43368627  0.73307725  0.66006407    -0.03000
C1959       C  0.47218325  0.78720033  0.68268072     0.36300
C1960       C  0.43628374  0.69860905  0.65395352     0.39900
C1961       C  0.49736427  0.76359728  0.68448578     0.39000
C1962       C  0.41167553  0.72225779  0.65205622     0.35900
C1963       C  0.43996267  0.77699812  0.64079678     0.36600
C1964       C  0.38985556  0.77699336  0.69079115     0.39900
N1965       N  0.51453339  0.77253482  0.69123153    -0.38200
N1966       N  0.47914149  0.80490268  0.68873722    -0.39800
N1967       N  0.42733604  0.68012118  0.64861994    -0.37500
N1968       N  0.39425351  0.71374923  0.64556231    -0.39900
N1969       N  0.41845881  0.74852199  0.70276193    -0.39700
N1970       N  0.38148232  0.77687341  0.70179538    -0.37300
N1971       N  0.39802530  0.78618397  0.62499241    -0.38400
N1972       N  0.45152735  0.77842924  0.63103785    -0.40000
C1973       C  0.29856592  0.70337294  0.67263300    -0.05000
C1974       C  0.30064212  0.69126308  0.66079982     0.09200
C1975       C  0.31177519  0.70380211  0.64799175    -0.02400
C1976       C  0.32222956  0.72857505  0.64734025    -0.00600
C1977       C  0.32130221  0.74109329  0.65950472    -0.04200
C1978       C  0.30851312  0.72809327  0.67191659     0.02800
C1979       C  0.29327485  0.66580384  0.66221009     0.09600
C1980       C  0.31331056  0.69121938  0.63563620     0.35500
C1981       C  0.30539507  0.73996716  0.68403117     0.38900
C1982       C  0.26940087  0.64739602  0.66108484    -0.04600
C1983       C  0.26300649  0.62350008  0.66180906     0.02600
C1984       C  0.28063357  0.61774114  0.66290251    -0.04200
C1985       C  0.30453457  0.63643476  0.66391437    -0.00400
C1986       C  0.31065390  0.66020439  0.66419666    -0.03000
C1987       C  0.25143471  0.65308719  0.65912406     0.36300
C1988       C  0.32334529  0.63187411  0.66344511     0.39900
C1989       C  0.23816767  0.60493397  0.66204897     0.39000
C1990       C  0.33501701  0.67912992  0.66652898     0.35900
C1991       C  0.28705557  0.69047468  0.68579667     0.36600
C1992       C  0.33476869  0.74100519  0.63427951     0.39900
N1993       N  0.21837334  0.59010590  0.66230722    -0.38200
N1994       N  0.23709383  0.65762523  0.65755851    -0.39800
N1995       N  0.33936684  0.62973596  0.66276408    -0.37500
N1996       N  0.35433369  0.69428150  0.66856225    -0.39900
N1997       N  0.31461891  0.68120355  0.62581034    -0.39700
N1998       N  0.34442808  0.75069860  0.62372890    -0.37300
N1999       N  0.30248257  0.74886662  0.69386452    -0.38400
N2000       N  0.27790591  0.68011714  0.69628613    -0.40000
C2001       C  0.36174390  0.85147799  0.83726290    -0.05000
C2002       C  0.35973669  0.84037315  0.85055995     0.09200
C2003       C  0.35906468  0.81900080  0.85085360    -0.02400
C2004       C  0.36030760  0.80857674  0.83789018    -0.00600
C2005       C  0.36110007  0.81879335  0.82405690    -0.04200
C2006       C  0.36321520  0.84134208  0.82413055     0.02800
C2007       C  0.36138924  0.85256499  0.86449908     0.09600
C2008       C  0.35762482  0.80794887  0.86471692     0.35500
C2009       C  0.36973235  0.85615671  0.81141362     0.38900
C2010       C  0.34090392  0.84883528  0.87144706    -0.04600
C2011       C  0.34242004  0.85822978  0.88539067     0.02600
C2012       C  0.36452441  0.87127816  0.89249507    -0.04200
C2013       C  0.38519736  0.87616650  0.88504722    -0.00400
C2014       C  0.38357171  0.86672281  0.87115759    -0.03000
C2015       C  0.31820722  0.83477291  0.86435973     0.36300
C2016       C  0.40830011  0.89127773  0.89150473     0.39900
C2017       C  0.32104958  0.85360121  0.89255598     0.39000
C2018       C  0.40470907  0.87109646  0.86376332     0.35900
C2019       C  0.36315424  0.87400740  0.83723856     0.36600
C2020       C  0.36194138  0.78778718  0.83924461     0.39900
N2021       N  0.30399103  0.84999220  0.89822624    -0.38200
N2022       N  0.30011273  0.82356690  0.85868098    -0.39800
N2023       N  0.42674697  0.90337770  0.89660934    -0.37500
N2024       N  0.42146984  0.87446728  0.85780870    -0.39900
N2025       N  0.35649514  0.79919144  0.87575860    -0.39700
N2026       N  0.36326535  0.77131780  0.84086307    -0.37300
N2027       N  0.37511678  0.86912373  0.80176578    -0.38400
N2028       N  0.36424443  0.89193234  0.83728172    -0.40000
C2029       C  0.44201952  0.79475980  0.80789107    -0.05000
C2030       C  0.43731935  0.77261335  0.80312282     0.09200
C2031       C  0.41861515  0.75942985  0.79342283    -0.02400
C2032       C  0.40230100  0.76623767  0.79039091    -0.00600
C2033       C  0.40524400  0.78738943  0.79666062    -0.04200
C2034       C  0.42723229  0.80290106  0.80362691     0.02800
C2035       C  0.45204453  0.76293738  0.80789531     0.09600
C2036       C  0.41578330  0.73819578  0.78686965     0.35500
C2037       C  0.43562531  0.82774466  0.80566325     0.38900
C2038       C  0.44177131  0.74216863  0.81646481    -0.04600
C2039       C  0.45369074  0.73019959  0.81854524     0.02600
C2040       C  0.47600322  0.73897780  0.81224119    -0.04200
C2041       C  0.48755014  0.76121991  0.80526598    -0.00400
C2042       C  0.47531150  0.77280890  0.80265016    -0.03000
C2043       C  0.41849830  0.73241478  0.82273620     0.36300
C2044       C  0.51151903  0.77146639  0.80001761     0.39900
C2045       C  0.44304986  0.70907643  0.82742705     0.39000
C2046       C  0.48599051  0.79387635  0.79366845     0.35900
C2047       C  0.46167441  0.80890877  0.81756418     0.36600
C2048       C  0.38259128  0.75023107  0.78126974     0.39900
N2049       N  0.43417857  0.69258736  0.83485396    -0.38200
N2050       N  0.39995982  0.72395350  0.82790431    -0.39800
N2051       N  0.53059122  0.77958968  0.79575700    -0.37500
N2052       N  0.49441920  0.81065588  0.78647053    -0.39900
N2053       N  0.41355336  0.72131760  0.78167778    -0.39700
N2054       N  0.36727866  0.73667117  0.77395086    -0.37300
N2055       N  0.44246914  0.84760460  0.80726670    -0.38400
N2056       N  0.47730126  0.82010251  0.82534086    -0.40000
C2057       C  0.28537038  0.65007360  0.78775697    -0.05000
C2058       C  0.28904400  0.66336787  0.80035755     0.09200
C2059       C  0.28151169  0.65183422  0.81381215    -0.02400
C2060       C  0.27216785  0.62729166  0.81489176    -0.00600
C2061       C  0.27137018  0.61418419  0.80245493    -0.04200
C2062       C  0.27619518  0.62554318  0.78875449     0.02800
C2063       C  0.30239308  0.68975658  0.79975603     0.09600
C2064       C  0.28472146  0.66564438  0.82674436     0.35500
C2065       C  0.27108657  0.61213917  0.77552028     0.38900
C2066       C  0.29092104  0.70185112  0.79637639    -0.04600
C2067       C  0.30369011  0.72685999  0.79657774     0.02600
C2068       C  0.32782710  0.73967990  0.80034188    -0.04200
C2069       C  0.33833608  0.72735815  0.80522148    -0.00400
C2070       C  0.32631265  0.70267052  0.80387149    -0.03000
C2071       C  0.26609494  0.68851405  0.79265068     0.36300
C2072       C  0.36035533  0.73961944  0.81311160     0.39900
C2073       C  0.29200468  0.73938492  0.79311192     0.39000
C2074       C  0.33879773  0.69066557  0.80643489     0.35900
C2075       C  0.29183135  0.66190596  0.77380117     0.36600
C2076       C  0.26491004  0.61655890  0.82911184     0.39900
N2077       N  0.28274887  0.74943627  0.79029691    -0.38200
N2078       N  0.24627179  0.67774022  0.78966144    -0.39800
N2079       N  0.37756982  0.74908237  0.81981040    -0.37500
N2080       N  0.34915969  0.68142940  0.80817933    -0.39900
N2081       N  0.28749985  0.67669083  0.83705275    -0.39700
N2082       N  0.25893516  0.60858887  0.84059187    -0.37300
N2083       N  0.26720029  0.60197663  0.76472957    -0.38400
N2084       N  0.29698782  0.67144875  0.76270786    -0.40000
C2085       C  0.37874085  0.82331415  0.71377093    -0.05000
C2086       C  0.35790340  0.81703754  0.72143395     0.09200
C2087       C  0.33717358  0.81067199  0.71363675    -0.02400
C2088       C  0.33637247  0.80721547  0.69852236    -0.00600
C2089       C  0.35637785  0.81038705  0.69120357    -0.04200
C2090       C  0.37810828  0.82079628  0.69859633     0.02800
C2091       C  0.35676602  0.81336525  0.73750948     0.09600
C2092       C  0.31648000  0.80681596  0.72130489     0.35500
C2093       C  0.39980589  0.82895554  0.69059935     0.38900
C2094       C  0.36864925  0.83251221  0.74717984    -0.04600
C2095       C  0.36997047  0.82832811  0.76207098     0.02600
C2096       C  0.35718038  0.80490590  0.76777131    -0.04200
C2097       C  0.34396820  0.78585306  0.75794999    -0.00400
C2098       C  0.34485356  0.79007729  0.74294581    -0.03000
C2099       C  0.38003883  0.85654942  0.74170880     0.36300
C2100       C  0.32947004  0.76151980  0.76275834     0.39900
C2101       C  0.38647800  0.84809254  0.77103527     0.39000
C2102       C  0.33428538  0.77021928  0.73293161     0.35900
C2103       C  0.40050130  0.83109691  0.72154589     0.36600
C2104       C  0.31497899  0.80015880  0.69053054     0.39900
N2105       N  0.40023160  0.86406345  0.77785624    -0.38200
N2106       N  0.38904916  0.87572225  0.73734428    -0.39800
N2107       N  0.31800628  0.74160573  0.76561556    -0.37500
N2108       N  0.32610709  0.75442941  0.72496208    -0.39900
N2109       N  0.30002475  0.80382607  0.72746702    -0.39700
N2110       N  0.29794568  0.79457518  0.68410946    -0.37300
N2111       N  0.41718497  0.83558745  0.68427012    -0.38400
N2112       N  0.41784598  0.83734169  0.72778223    -0.40000
C2113       C  0.53127794  0.86175289  0.35038144    -0.05000
C2114       C  0.54345007  0.85210450  0.35683638     0.09200
C2115       C  0.54777100  0.83700341  0.34859569    -0.02400
C2116       C  0.53707637  0.82895697  0.33488720    -0.00600
C2117       C  0.52062294  0.83464260  0.32976474    -0.04200
C2118       C  0.52106546  0.85403951  0.33652630     0.02800
C2119       C  0.55115837  0.85735373  0.37236815     0.09600
C2120       C  0.56263362  0.82919637  0.35445620     0.35500
C2121       C  0.51413593  0.86818338  0.32862173     0.38900
C2122       C  0.53567162  0.84265517  0.38339232    -0.04600
C2123       C  0.54220454  0.84781111  0.39807556     0.02600
C2124       C  0.56416783  0.86810809  0.40196692    -0.04200
C2125       C  0.58030631  0.88199583  0.39084471    -0.00400
C2126       C  0.57374604  0.87662689  0.37611009    -0.03000
C2127       C  0.51289158  0.82212007  0.37957765     0.36300
C2128       C  0.60346951  0.90209005  0.39444757     0.39900
C2129       C  0.52659244  0.83159714  0.40917409     0.39000
C2130       C  0.59012607  0.89096605  0.36473224     0.35900
C2131       C  0.52896491  0.87937495  0.35808975     0.36600
C2132       C  0.54342028  0.81526049  0.32598097     0.39900
N2133       N  0.51431273  0.81862829  0.41806351    -0.38200
N2134       N  0.49474459  0.80573125  0.37651265    -0.39800
N2135       N  0.62204961  0.91804813  0.39725797    -0.37500
N2136       N  0.60313839  0.90226793  0.35558865    -0.39900
N2137       N  0.57452182  0.82302999  0.35918965    -0.39700
N2138       N  0.54887440  0.80468040  0.31883259    -0.37300
N2139       N  0.50880079  0.87964331  0.32230438    -0.38400
N2140       N  0.52702324  0.89338330  0.36423758    -0.40000
C2141       C  0.54962808  0.71201053  0.63068638    -0.05000
C2142       C  0.53643289  0.70033617  0.61828016     0.09200
C2143       C  0.51191244  0.69026352  0.61840481    -0.02400
C2144       C  0.50039875  0.69106113  0.63101963    -0.00600
C2145       C  0.51312169  0.70089407  0.64423191    -0.04200
C2146       C  0.53831871  0.71324244  0.64333769     0.02800
C2147       C  0.54834832  0.70059688  0.60445066     0.09600
C2148       C  0.49853692  0.67959246  0.60522623     0.35500
C2149       C  0.55327171  0.72973197  0.65442935     0.38900
C2150       C  0.54812390  0.68023652  0.59998622    -0.04600
C2151       C  0.55592936  0.67915523  0.58597352     0.02600
C2152       C  0.56368224  0.69832569  0.57624799    -0.04200
C2153       C  0.56528837  0.71927731  0.58106348    -0.00400
C2154       C  0.55769218  0.72039676  0.59513625    -0.03000
C2155       C  0.53929061  0.66018041  0.60971981     0.36300
C2156       C  0.57338389  0.73920099  0.57128988     0.39900
C2157       C  0.55624039  0.65839197  0.58162386     0.39000
C2158       C  0.55861328  0.74162157  0.59988043     0.35900
C2159       C  0.57512381  0.72346763  0.63020685     0.36600
C2160       C  0.47559858  0.68279878  0.62965866     0.39900
N2161       N  0.55663685  0.64192197  0.57813766    -0.38200
N2162       N  0.53221345  0.64415133  0.61747076    -0.39800
N2163       N  0.57980461  0.75505794  0.56346911    -0.37500
N2164       N  0.55941141  0.75855797  0.60373005    -0.39900
N2165       N  0.48797295  0.67115177  0.59471196    -0.39700
N2166       N  0.45580008  0.67566993  0.62789588    -0.37300
N2167       N  0.56580401  0.74318412  0.66300858    -0.38400
N2168       N  0.59544303  0.73260888  0.62975352    -0.40000
C2169       C  0.58197768  0.80241957  0.47193672    -0.05000
C2170       C  0.58943485  0.80776238  0.48645703     0.09200
C2171       C  0.59746602  0.83061184  0.49185571    -0.02400
C2172       C  0.59742643  0.84784848  0.48291050    -0.00600
C2173       C  0.58847027  0.84204850  0.46859709    -0.04200
C2174       C  0.58102657  0.81924192  0.46313689     0.02800
C2175       C  0.58829117  0.78898923  0.49608377     0.09600
C2176       C  0.60546120  0.83619676  0.50672771     0.35500
C2177       C  0.57258520  0.81302409  0.44837277     0.38900
C2178       C  0.60691614  0.78488418  0.49616637    -0.04600
C2179       C  0.60481749  0.76564475  0.50403415     0.02600
C2180       C  0.58424480  0.75066991  0.51232523    -0.04200
C2181       C  0.56611294  0.75572292  0.51282502    -0.00400
C2182       C  0.56805858  0.77459438  0.50461317    -0.03000
C2183       C  0.62824841  0.80049679  0.48802839     0.36300
C2184       C  0.54554321  0.74187994  0.52198619     0.39900
C2185       C  0.62347406  0.76074746  0.50294872     0.39000
C2186       C  0.54912640  0.77918124  0.50484652     0.35900
C2187       C  0.57534971  0.77951345  0.46604948     0.36600
C2188       C  0.60585117  0.87123722  0.48871260     0.39900
N2189       N  0.63832187  0.75678945  0.50201910    -0.38200
N2190       N  0.64531291  0.81309295  0.48160633    -0.39800
N2191       N  0.52915352  0.73091009  0.52931196    -0.37500
N2192       N  0.53405650  0.78288220  0.50503697    -0.39900
N2193       N  0.61175143  0.84052098  0.51861638    -0.39700
N2194       N  0.61274337  0.88992104  0.49337484    -0.37300
N2195       N  0.56574825  0.80800782  0.43661841    -0.38400
N2196       N  0.57033761  0.76132142  0.46135504    -0.40000
C2197       C  0.33597356  0.82840962  0.61745325    -0.05000
C2198       C  0.35745965  0.84423359  0.61048195     0.09200
C2199       C  0.37880433  0.85264979  0.61799061    -0.02400
C2200       C  0.37879837  0.84311155  0.63165741    -0.00600
C2201       C  0.35754521  0.82366259  0.63739957    -0.04200
C2202       C  0.33599388  0.81911469  0.63118772     0.02800
C2203       C  0.35781002  0.85096324  0.59496396     0.09600
C2204       C  0.40084091  0.87075871  0.61141737     0.35500
C2205       C  0.31388139  0.80586219  0.63906996     0.38900
C2206       C  0.35301760  0.86848759  0.59102189    -0.04600
C2207       C  0.35426889  0.87508496  0.57634022     0.02600
C2208       C  0.36060946  0.86435097  0.56556722    -0.04200
C2209       C  0.36472179  0.84634023  0.56953583    -0.00400
C2210       C  0.36328573  0.83968396  0.58414623    -0.03000
C2211       C  0.34721515  0.87999480  0.60210534     0.36300
C2212       C  0.36985551  0.83413607  0.55853135     0.39900
C2213       C  0.34986231  0.89349601  0.57243293     0.39000
C2214       C  0.36745857  0.82112766  0.58811045     0.35900
C2215       C  0.31384510  0.82098333  0.61022116     0.36600
C2216       C  0.40024342  0.85481725  0.64017430     0.39900
N2217       N  0.34630026  0.90814822  0.56930534    -0.38200
N2218       N  0.34253135  0.88917643  0.61092622    -0.39800
N2219       N  0.37391819  0.82444031  0.54972160    -0.37500
N2220       N  0.37079488  0.80636051  0.59132917    -0.39900
N2221       N  0.41834901  0.88511445  0.60605939    -0.39700
N2222       N  0.41740745  0.86436597  0.64694210    -0.37300
N2223       N  0.29618279  0.79531753  0.64529890    -0.38400
N2224       N  0.29624177  0.81504948  0.60438891    -0.40000
C2225       C  0.45815323  0.90671709  0.48288339    -0.05000
C2226       C  0.45822690  0.88564947  0.48170197     0.09200
C2227       C  0.43944180  0.86441678  0.48760058    -0.02400
C2228       C  0.42111070  0.86440155  0.49517333    -0.00600
C2229       C  0.42160939  0.88575046  0.49704291    -0.04200
C2230       C  0.44002629  0.90685686  0.49064949     0.02800
C2231       C  0.47878992  0.88602432  0.47498496     0.09600
C2232       C  0.43914254  0.84260636  0.48593984     0.35500
C2233       C  0.44110046  0.92899793  0.49272076     0.38900
C2234       C  0.49750972  0.88934630  0.48380369    -0.04600
C2235       C  0.51681157  0.88932510  0.47765574     0.02600
C2236       C  0.51744723  0.88576388  0.46259029    -0.04200
C2237       C  0.49859358  0.88241751  0.45377442    -0.00400
C2238       C  0.47937822  0.88262223  0.45997317    -0.03000
C2239       C  0.49686029  0.89282963  0.49926234     0.36300
C2240       C  0.49845168  0.87788777  0.43840676     0.39900
C2241       C  0.53636758  0.89380814  0.48684148     0.39000
C2242       C  0.46003265  0.87912448  0.45096271     0.35900
C2243       C  0.47696133  0.92831004  0.47625088     0.36600
C2244       C  0.40152035  0.84227363  0.50080732     0.39900
N2245       N  0.55198320  0.89742601  0.49415746    -0.38200
N2246       N  0.49628291  0.89556136  0.51158954    -0.39800
N2247       N  0.49829484  0.87419471  0.42615443    -0.37500
N2248       N  0.44456058  0.87635863  0.44381744    -0.39900
N2249       N  0.43894966  0.82523808  0.48458218    -0.39700
N2250       N  0.38585684  0.82463594  0.50527359    -0.37300
N2251       N  0.44196248  0.94664351  0.49446714    -0.38400
N2252       N  0.49190012  0.94548785  0.47086889    -0.40000
C2253       C  0.22708347  0.71724521  0.34066197    -0.05000
C2254       C  0.21017937  0.69467947  0.34608920     0.09200
C2255       C  0.20059885  0.67496312  0.33677236    -0.02400
C2256       C  0.21009268  0.67743203  0.32275272    -0.00600
C2257       C  0.23048915  0.69908100  0.31848167    -0.04200
C2258       C  0.23609850  0.71958150  0.32654285     0.02800
C2259       C  0.20283053  0.69178139  0.36163707     0.09600
C2260       C  0.18165442  0.65202697  0.34182105     0.35500
C2261       C  0.24862302  0.74281601  0.31984065     0.38900
C2262       C  0.18404917  0.69425629  0.36602111    -0.04600
C2263       C  0.17790683  0.69245695  0.38081347     0.02600
C2264       C  0.19083197  0.68854655  0.39140647    -0.04200
C2265       C  0.20950996  0.68575647  0.38685960    -0.00400
C2266       C  0.21529788  0.68720126  0.37204556    -0.03000
C2267       C  0.17093195  0.69846697  0.35523869     0.36300
C2268       C  0.22330311  0.68194647  0.39735700     0.39900
C2269       C  0.15761903  0.69364913  0.38496965     0.39000
C2270       C  0.23418195  0.68398335  0.36741759     0.35900
C2271       C  0.23587010  0.73794439  0.34980718     0.36600
C2272       C  0.19789203  0.65839270  0.31240839     0.39900
N2273       N  0.14135940  0.69446787  0.38828145    -0.38200
N2274       N  0.16045282  0.70179511  0.34662737    -0.39800
N2275       N  0.23434857  0.67886776  0.40567229    -0.37500
N2276       N  0.24913615  0.68133255  0.36362796    -0.39900
N2277       N  0.16663101  0.63370239  0.34591365    -0.39700
N2278       N  0.18744080  0.64351939  0.30402066    -0.37300
N2279       N  0.25841086  0.76136150  0.31448724    -0.38400
N2280       N  0.24304488  0.75439729  0.35718069    -0.40000
C2281       C  0.23165982  0.76734151  0.47813373    -0.05000
C2282       C  0.25542908  0.78070071  0.47366631     0.09200
C2283       C  0.26207723  0.77572028  0.46029385    -0.02400
C2284       C  0.24514028  0.75689977  0.45161615    -0.00600
C2285       C  0.22136820  0.74290543  0.45627788    -0.04200
C2286       C  0.21465620  0.74854026  0.46949393     0.02800
C2287       C  0.27377406  0.79916820  0.48344951     0.09600
C2288       C  0.28650914  0.78978658  0.45561682     0.35500
C2289       C  0.19051345  0.73429274  0.47466993     0.38900
C2290       C  0.28426596  0.79259296  0.49413054    -0.04600
C2291       C  0.30228778  0.80994679  0.50300583     0.02600
C2292       C  0.31044110  0.83422144  0.50101634    -0.04200
C2293       C  0.29922112  0.84064493  0.49061291    -0.00400
C2294       C  0.28082925  0.82310412  0.48196019    -0.03000
C2295       C  0.27662027  0.76786923  0.49586223     0.36300
C2296       C  0.30711857  0.86531724  0.48828846     0.39900
C2297       C  0.31204823  0.80260012  0.51437118     0.39000
C2298       C  0.26925720  0.82964272  0.47137772     0.35900
C2299       C  0.22488578  0.77262683  0.49186039     0.36600
C2300       C  0.25220288  0.75222166  0.43779743     0.39900
N2301       N  0.31980567  0.79676258  0.52345623    -0.38200
N2302       N  0.27051917  0.74815021  0.49722280    -0.39800
N2303       N  0.31340428  0.88498923  0.48640019    -0.37500
N2304       N  0.25994989  0.83482179  0.46296615    -0.39900
N2305       N  0.30601524  0.80106505  0.45192717    -0.39700
N2306       N  0.25785800  0.74853115  0.42676715    -0.37300
N2307       N  0.17127032  0.72293002  0.47882281    -0.38400
N2308       N  0.21957255  0.77686880  0.50283162    -0.40000
C2309       C  0.37687596  0.53309556  0.34681611    -0.05000
C2310       C  0.35723658  0.52223969  0.35620100     0.09200
C2311       C  0.33510885  0.51684194  0.35101968    -0.02400
C2312       C  0.33324024  0.52448119  0.33712381    -0.00600
C2313       C  0.35393760  0.54015926  0.32905189    -0.04200
C2314       C  0.37508848  0.54143231  0.33311375     0.02800
C2315       C  0.35988597  0.51661128  0.37152156     0.09600
C2316       C  0.31431898  0.50382957  0.36011062     0.35500
C2317       C  0.39482129  0.55071033  0.32312579     0.38900
C2318       C  0.37013440  0.53489859  0.38190737    -0.04600
C2319       C  0.37238673  0.52980622  0.39641720     0.02600
C2320       C  0.36438785  0.50628914  0.40068884    -0.04200
C2321       C  0.35405862  0.48797076  0.39025583    -0.00400
C2322       C  0.35190029  0.49315529  0.37572840    -0.03000
C2323       C  0.37805451  0.55898881  0.37766531     0.36300
C2324       C  0.34618211  0.46383574  0.39432565     0.39900
C2325       C  0.38209369  0.54873467  0.40703654     0.39000
C2326       C  0.34153784  0.47436883  0.36504767     0.35900
C2327       C  0.39903228  0.53608973  0.35142606     0.36600
C2328       C  0.31003790  0.51387507  0.33065116     0.39900
N2329       N  0.38977824  0.56379639  0.41551982    -0.38200
N2330       N  0.38439132  0.57819329  0.37426404    -0.39800
N2331       N  0.33986239  0.44457306  0.39757464    -0.37500
N2332       N  0.33318018  0.45938763  0.35652042    -0.39900
N2333       N  0.29778376  0.49347487  0.36740189    -0.39700
N2334       N  0.29146755  0.50520088  0.32552141    -0.37300
N2335       N  0.41053617  0.55806982  0.31513586    -0.38400
N2336       N  0.41668706  0.53846693  0.35515281    -0.40000
C2337       C  0.46638254  0.58085445  0.46884051    -0.05000
C2338       C  0.46628990  0.57927477  0.48403733     0.09200
C2339       C  0.44763045  0.55945196  0.49115751    -0.02400
C2340       C  0.42860550  0.54147972  0.48314506    -0.00600
C2341       C  0.42814584  0.54331944  0.46786319    -0.04200
C2342       C  0.44751480  0.56288395  0.46074347     0.02800
C2343       C  0.48560740  0.59890304  0.49263747     0.09600
C2344       C  0.44796715  0.55782720  0.50681128     0.35500
C2345       C  0.44858000  0.56432285  0.44505264     0.38900
C2346       C  0.48304646  0.61734547  0.49775626    -0.04600
C2347       C  0.50129297  0.63607488  0.50577483     0.02600
C2348       C  0.52206133  0.63622210  0.50891059    -0.04200
C2349       C  0.52444007  0.61750405  0.50393985    -0.00400
C2350       C  0.50621200  0.59888498  0.49581103    -0.03000
C2351       C  0.46142505  0.61680428  0.49490552     0.36300
C2352       C  0.54516628  0.61683735  0.50767425     0.39900
C2353       C  0.49895867  0.65556145  0.51038135     0.39000
C2354       C  0.50831974  0.57937119  0.49097297     0.35900
C2355       C  0.48590006  0.60113812  0.46155581     0.36600
C2356       C  0.40937659  0.52149493  0.49080148     0.39900
N2357       N  0.49716932  0.67115806  0.51402430    -0.38200
N2358       N  0.44407757  0.61620503  0.49270293    -0.39800
N2359       N  0.56163577  0.61623304  0.51070199    -0.37500
N2360       N  0.50986507  0.56370374  0.48715547    -0.39900
N2361       N  0.44837290  0.55668005  0.51929516    -0.39700
N2362       N  0.39415677  0.50554925  0.49697635    -0.37300
N2363       N  0.44947461  0.56543280  0.43254321    -0.38400
N2364       N  0.50144939  0.61730970  0.45573745    -0.40000
C2365       C  0.18885659  0.51038181  0.59313799    -0.05000
C2366       C  0.20490339  0.50425448  0.59802262     0.09200
C2367       C  0.21031955  0.49061692  0.58906756    -0.02400
C2368       C  0.20063433  0.48411796  0.57500149    -0.00600
C2369       C  0.18590747  0.49181162  0.56964280    -0.04200
C2370       C  0.17937547  0.50421178  0.57906040     0.02800
C2371       C  0.21852118  0.51518235  0.61167627     0.09600
C2372       C  0.22689535  0.48438494  0.59407537     0.35500
C2373       C  0.16283790  0.51071179  0.57436605     0.38900
C2374       C  0.21277857  0.50237921  0.62472770    -0.04600
C2375       C  0.22488037  0.51367176  0.63770340     0.02600
C2376       C  0.24209450  0.53843463  0.63794043    -0.04200
C2377       C  0.24974092  0.55012779  0.62414053    -0.00400
C2378       C  0.23758065  0.53875702  0.61133586    -0.03000
C2379       C  0.19474742  0.47731862  0.62466795     0.36300
C2380       C  0.27038390  0.57391782  0.62263339     0.39900
C2381       C  0.22118478  0.49882646  0.65007530     0.39000
C2382       C  0.24479865  0.55135530  0.59759021     0.35900
C2383       C  0.18294019  0.52403541  0.60246060     0.36600
C2384       C  0.20685099  0.47048595  0.56590354     0.39900
N2385       N  0.21782517  0.48600335  0.65952018    -0.38200
N2386       N  0.18051065  0.45728334  0.62456873    -0.39800
N2387       N  0.28632568  0.59309415  0.62117856    -0.37500
N2388       N  0.25046549  0.56130856  0.58663463    -0.39900
N2389       N  0.24016779  0.47948307  0.59808282    -0.39700
N2390       N  0.21175202  0.45951084  0.55869300    -0.37300
N2391       N  0.14967920  0.51593755  0.57063373    -0.38400
N2392       N  0.17837880  0.53503180  0.60990136    -0.40000
C2393       C  0.18508409  0.60655606  0.46983175    -0.05000
C2394       C  0.16553256  0.59337395  0.47910086     0.09200
C2395       C  0.14783295  0.59879554  0.47987013    -0.02400
C2396       C  0.14960701  0.61727717  0.47135838    -0.00600
C2397       C  0.16903208  0.63030524  0.46189788    -0.04200
C2398       C  0.18684249  0.62493056  0.46123990     0.02800
C2399       C  0.16362603  0.57356088  0.48790977     0.09600
C2400       C  0.12756896  0.58501324  0.48923304     0.35500
C2401       C  0.20733590  0.63867874  0.45201004     0.38900
C2402       C  0.17291093  0.57782296  0.50202142    -0.04600
C2403       C  0.17278170  0.55960308  0.50993430     0.02600
C2404       C  0.16377927  0.53691785  0.50362928    -0.04200
C2405       C  0.15412163  0.53275218  0.48944889    -0.00400
C2406       C  0.15361764  0.55085005  0.48182245    -0.03000
C2407       C  0.18257174  0.60109538  0.50838557     0.36300
C2408       C  0.14550891  0.51025876  0.48227039     0.39900
C2409       C  0.18158206  0.56436655  0.52466887     0.39000
C2410       C  0.14269316  0.54616229  0.46764591     0.35900
C2411       C  0.20337618  0.60108137  0.46913462     0.36600
C2412       C  0.13092484  0.62221573  0.47192687     0.39900
N2413       N  0.18858329  0.56825932  0.53642902    -0.38200
N2414       N  0.19019082  0.61967250  0.51341491    -0.39800
N2415       N  0.13873357  0.49246093  0.47637468    -0.37500
N2416       N  0.13378889  0.54244934  0.45640735    -0.39900
N2417       N  0.11135111  0.57398204  0.49666939    -0.39700
N2418       N  0.11609018  0.62625000  0.47232500    -0.37300
N2419       N  0.22368730  0.64966329  0.44465989    -0.38400
N2420       N  0.21791308  0.59663959  0.46860778    -0.40000
C2421       C  0.23991577  0.46240624  0.49635834    -0.05000
C2422       C  0.25286506  0.48068338  0.48619514     0.09200
C2423       C  0.24646477  0.49733928  0.48341814    -0.02400
C2424       C  0.22780755  0.49634346  0.49117016    -0.00600
C2425       C  0.21565586  0.47891244  0.50200317    -0.04200
C2426       C  0.22127613  0.46143614  0.50422834     0.02800
C2427       C  0.27362268  0.48278384  0.47854726     0.09600
C2428       C  0.25928128  0.51565703  0.47261860     0.35500
C2429       C  0.20845693  0.44287033  0.51487155     0.38900
C2430       C  0.27029919  0.46902967  0.46614954    -0.04600
C2431       C  0.28995077  0.47156777  0.45869749     0.02600
C2432       C  0.31309103  0.48752922  0.46381776    -0.04200
C2433       C  0.31635798  0.50153680  0.47617183    -0.00400
C2434       C  0.29667518  0.49920766  0.48344948    -0.03000
C2435       C  0.24658748  0.45243627  0.46099750     0.36300
C2436       C  0.33990238  0.51800165  0.48166824     0.39900
C2437       C  0.28632568  0.45860613  0.44534783     0.39000
C2438       C  0.30008277  0.51372112  0.49603203     0.35900
C2439       C  0.24615350  0.44490051  0.49887337     0.36600
C2440       C  0.22059509  0.51282494  0.48760351     0.39900
N2441       N  0.28346061  0.44844132  0.43462866    -0.38200
N2442       N  0.22763939  0.43915358  0.45694917    -0.39800
N2443       N  0.35867735  0.53116513  0.48602934    -0.37500
N2444       N  0.30276145  0.52535183  0.50602841    -0.39900
N2445       N  0.26957933  0.53029380  0.46403400    -0.39700
N2446       N  0.21466402  0.52581017  0.48474334    -0.37300
N2447       N  0.19821358  0.42795013  0.52330634    -0.38400
N2448       N  0.25118977  0.43096099  0.50079908    -0.40000
C2449       C  0.63925605  0.64865547  0.51873920    -0.05000
C2450       C  0.64545386  0.64207808  0.53169407     0.09200
C2451       C  0.64003735  0.64816557  0.54511531    -0.02400
C2452       C  0.62779468  0.66007589  0.54562874    -0.00600
C2453       C  0.62088167  0.66608752  0.53266654    -0.04200
C2454       C  0.62696765  0.66055887  0.51919255     0.02800
C2455       C  0.65687124  0.62786116  0.53129637     0.09600
C2456       C  0.64693059  0.64190442  0.55842833     0.35500
C2457       C  0.61942077  0.66579846  0.50575528     0.38900
C2458       C  0.68152936  0.63917105  0.52967454    -0.04600
C2459       C  0.69234169  0.62580252  0.52996493     0.02600
C2460       C  0.67843835  0.60083861  0.53145525    -0.04200
C2461       C  0.65363263  0.58959538  0.53311402    -0.00400
C2462       C  0.64299575  0.60308497  0.53312011    -0.03000
C2463       C  0.69574325  0.66467185  0.52786001     0.36300
C2464       C  0.63877775  0.56403821  0.53454630     0.39900
C2465       C  0.71787134  0.63797490  0.52955087     0.39000
C2466       C  0.61765404  0.59146916  0.53503805     0.35900
C2467       C  0.64509274  0.64266676  0.50492843     0.36600
C2468       C  0.62250058  0.66625994  0.55956217     0.39900
N2469       N  0.73826294  0.64779866  0.52939814    -0.38200
N2470       N  0.70693000  0.68501492  0.52635584    -0.39800
N2471       N  0.62691973  0.54366745  0.53572446    -0.37500
N2472       N  0.59746576  0.58223584  0.53663466    -0.39900
N2473       N  0.65246638  0.63685978  0.56901300    -0.39700
N2474       N  0.61825738  0.67115468  0.57068034    -0.37300
N2475       N  0.61330108  0.66988156  0.49504430    -0.38400
N2476       N  0.64980436  0.63795301  0.49390560    -0.40000
C2477       C  0.01235032  0.62305359  0.44530344    -0.05000
C2478       C  0.02404336  0.62739607  0.43188495     0.09200
C2479       C  0.01094092  0.62136571  0.41894438    -0.02400
C2480       C  0.98612719  0.61031561  0.41942371    -0.00600
C2481       C  0.97422585  0.60535238  0.43289981    -0.04200
C2482       C  0.98762272  0.61238312  0.44583503     0.02800
C2483       C  0.05005388  0.63711830  0.43153694     0.09600
C2484       C  0.02301079  0.62590841  0.40515268     0.35500
C2485       C  0.97597828  0.60746928  0.45980417     0.38900
C2486       C  0.05829947  0.62165935  0.43301614    -0.04600
C2487       C  0.08274352  0.63069594  0.43368570     0.02600
C2488       C  0.09931555  0.65546490  0.43287656    -0.04200
C2489       C  0.09086843  0.67092836  0.43142263    -0.00400
C2490       C  0.06637336  0.66170966  0.43051821    -0.03000
C2491       C  0.04145151  0.59632488  0.43394019     0.36300
C2492       C  0.10721788  0.69637317  0.43076324     0.39900
C2493       C  0.09058738  0.61434998  0.43584321     0.39000
C2494       C  0.05787007  0.67750257  0.42839006     0.35900
C2495       C  0.02576637  0.62861403  0.45861892     0.36600
C2496       C  0.97291620  0.60416620  0.40600131     0.39900
N2497       N  0.09677537  0.60126579  0.43758678    -0.38200
N2498       N  0.02794490  0.57613888  0.43466256    -0.39800
N2499       N  0.12020432  0.71669051  0.43036573    -0.37500
N2500       N  0.05108878  0.69007554  0.42655034    -0.39900
N2501       N  0.03270624  0.62952459  0.39417229    -0.39700
N2502       N  0.96239884  0.59925406  0.39528483    -0.37300
N2503       N  0.96672618  0.60353520  0.47096093    -0.38400
N2504       N  0.03651437  0.63285756  0.46920377    -0.40000
C2505       C  0.84938962  0.51848170  0.37575521    -0.05000
C2506       C  0.85703148  0.53704320  0.36567194     0.09200
C2507       C  0.87313926  0.56056479  0.36999308    -0.02400
C2508       C  0.88163272  0.56557884  0.38436063    -0.00600
C2509       C  0.87395306  0.54700039  0.39460588    -0.04200
C2510       C  0.85763632  0.52336128  0.39015835     0.02800
C2511       C  0.84805572  0.53155773  0.35043753     0.09600
C2512       C  0.88130091  0.57957030  0.35950877     0.35500
C2513       C  0.84881867  0.50389360  0.40037853     0.38900
C2514       C  0.82697714  0.53017692  0.34671105    -0.04600
C2515       C  0.81778616  0.52356818  0.33257098     0.02600
C2516       C  0.82739167  0.51436829  0.32273683    -0.04200
C2517       C  0.85020585  0.51868205  0.32604684    -0.00400
C2518       C  0.86053978  0.52758437  0.33973169    -0.03000
C2519       C  0.81467374  0.53553630  0.35749775     0.36300
C2520       C  0.86318838  0.51384125  0.31547073     0.39900
C2521       C  0.80114671  0.52984327  0.32793171     0.39000
C2522       C  0.88395307  0.53245009  0.34291963     0.35900
C2523       C  0.83313965  0.49422615  0.37119061     0.36600
C2524       C  0.89899507  0.58984222  0.38832484     0.39900
N2525       N  0.78819381  0.53555278  0.32461233    -0.38200
N2526       N  0.80474818  0.53958410  0.36614210    -0.39800
N2527       N  0.87360764  0.51005038  0.30704956    -0.37500
N2528       N  0.90275796  0.53668281  0.34545577    -0.39900
N2529       N  0.88786986  0.59469412  0.35110933    -0.39700
N2530       N  0.91287681  0.60920631  0.39145841    -0.37300
N2531       N  0.84176254  0.48830534  0.40848141    -0.38400
N2532       N  0.82025859  0.47491455  0.36748261    -0.40000
C2533       C  0.82740942  0.58425884  0.46466053    -0.05000
C2534       C  0.82023689  0.57266530  0.47819096     0.09200
C2535       C  0.83100942  0.56081432  0.48353865    -0.02400
C2536       C  0.84771759  0.55924964  0.47505023    -0.00600
C2537       C  0.85451889  0.57031666  0.46129935    -0.04200
C2538       C  0.84469020  0.58334260  0.45630940     0.02800
C2539       C  0.80021543  0.57144342  0.48645415     0.09600
C2540       C  0.82488566  0.55027011  0.49785956     0.35500
C2541       C  0.85146244  0.59485354  0.44228038     0.38900
C2542       C  0.77711758  0.55159824  0.48480007    -0.04600
C2543       C  0.75841104  0.54920993  0.49333678     0.02600
C2544       C  0.76250257  0.56698138  0.50348489    -0.04200
C2545       C  0.78558603  0.58731984  0.50471757    -0.00400
C2546       C  0.80433495  0.58943070  0.49629488    -0.03000
C2547       C  0.77261668  0.53368615  0.47413592     0.36300
C2548       C  0.79037037  0.60574779  0.51503056     0.39900
C2549       C  0.73483768  0.52858359  0.49136021     0.39000
C2550       C  0.82799735  0.61002924  0.49782198     0.35900
C2551       C  0.81659957  0.59672928  0.45924101     0.36600
C2552       C  0.85806343  0.54636085  0.48057937     0.39900
N2553       N  0.71606777  0.51209335  0.48978520    -0.38200
N2554       N  0.76909687  0.51953899  0.46554651    -0.39800
N2555       N  0.79418991  0.62046617  0.52325463    -0.37500
N2556       N  0.84689277  0.62647716  0.49899486    -0.39900
N2557       N  0.82014373  0.54206231  0.50934033    -0.39700
N2558       N  0.86626383  0.53600139  0.48492102    -0.37300
N2559       N  0.85686834  0.60404607  0.43108269    -0.38400
N2560       N  0.80792453  0.60666956  0.45496342    -0.40000
C2561       C  0.01140188  0.41424216  0.52158836    -0.05000
C2562       C  0.01845660  0.39820010  0.52482337     0.09200
C2563       C  0.00119431  0.37422086  0.52748273    -0.02400
C2564       C  0.97695485  0.36640695  0.52735513    -0.00600
C2565       C  0.96972760  0.38247032  0.52412361    -0.04200
C2566       C  0.98726080  0.40644377  0.52102996     0.02800
C2567       C  0.04425519  0.40698556  0.52529546     0.09600
C2568       C  0.00845684  0.35755972  0.53021095     0.35500
C2569       C  0.98072854  0.42322556  0.51683394     0.38900
C2570       C  0.05605912  0.41164286  0.53868584    -0.04600
C2571       C  0.08095076  0.42406984  0.53909571     0.02600
C2572       C  0.09418580  0.43259900  0.52614195    -0.04200
C2573       C  0.08223556  0.42623715  0.51269967    -0.00400
C2574       C  0.05735835  0.41311115  0.51231338    -0.03000
C2575       C  0.04260924  0.40430377  0.55205511     0.36300
C2576       C  0.09534841  0.43441669  0.49922707     0.39900
C2577       C  0.09292955  0.42781592  0.55283400     0.39000
C2578       C  0.04513187  0.40654968  0.49853115     0.35900
C2579       C  0.02915854  0.43894557  0.51876233     0.36600
C2580       C  0.95966543  0.34195359  0.53099724     0.39900
N2581       N  0.10251810  0.43060751  0.56375893    -0.38200
N2582       N  0.03185558  0.39835661  0.56271692    -0.39800
N2583       N  0.10575453  0.44093636  0.48846060    -0.37500
N2584       N  0.03535573  0.40123326  0.48754648    -0.39900
N2585       N  0.01429530  0.34428849  0.53234152    -0.39700
N2586       N  0.94594707  0.32243688  0.53395445    -0.37300
N2587       N  0.97562095  0.43666734  0.51346747    -0.38400
N2588       N  0.04336324  0.45858495  0.51645636    -0.40000
C2589       C  0.88934548  0.44519919  0.49812377    -0.05000
C2590       C  0.90159061  0.45305418  0.48484797     0.09200
C2591       C  0.91346007  0.44239379  0.47931513    -0.02400
C2592       C  0.91314505  0.42399355  0.48702638    -0.00600
C2593       C  0.90050949  0.41578453  0.50019806    -0.04200
C2594       C  0.88831384  0.42625537  0.50561070     0.02800
C2595       C  0.90168869  0.47234694  0.47653615     0.09600
C2596       C  0.92627300  0.45059520  0.46573709     0.35500
C2597       C  0.87385916  0.41696763  0.51856021     0.38900
C2598       C  0.92243365  0.49504141  0.47568318    -0.04600
C2599       C  0.92288431  0.51283893  0.46716523     0.02600
C2600       C  0.90211097  0.50850176  0.46018927    -0.04200
C2601       C  0.88115657  0.48588357  0.46140677    -0.00400
C2602       C  0.88114663  0.46773005  0.46923400    -0.03000
C2603       C  0.94335434  0.49996045  0.48354315     0.36300
C2604       C  0.85935445  0.48133619  0.45493961     0.39900
C2605       C  0.94512140  0.53500906  0.46488934     0.39000
C2606       C  0.86005495  0.44413996  0.46962307     0.35900
C2607       C  0.87811531  0.45690225  0.50419031     0.36600
C2608       C  0.92648072  0.41408488  0.48157852     0.39900
N2609       N  0.96303037  0.55245893  0.46293819    -0.38200
N2610       N  0.95994663  0.50371476  0.48984732    -0.39800
N2611       N  0.84196467  0.47776437  0.44982124    -0.37500
N2612       N  0.84327448  0.42530477  0.46990594    -0.39900
N2613       N  0.93667232  0.45729079  0.45497635    -0.39700
N2614       N  0.93713019  0.40617779  0.47727735    -0.37300
N2615       N  0.86220882  0.40942704  0.52882245    -0.38400
N2616       N  0.86926489  0.46630725  0.50907604    -0.40000
C2617       C  0.65148241  0.04706642  0.43318072    -0.05000
C2618       C  0.65283234  0.03789169  0.44665151     0.09200
C2619       C  0.66297581  0.05324142  0.45859300    -0.02400
C2620       C  0.67120931  0.07754673  0.45718581    -0.00600
C2621       C  0.66952413  0.08679298  0.44372191    -0.04200
C2622       C  0.65991448  0.07137383  0.43166654     0.02800
C2623       C  0.64210410  0.01173705  0.44840218     0.09600
C2624       C  0.66440971  0.04383638  0.47245133     0.35500
C2625       C  0.65879350  0.08035804  0.41757862     0.38900
C2626       C  0.65345827  0.00065194  0.44269626    -0.04600
C2627       C  0.64222740  0.97573660  0.44320980     0.02600
C2628       C  0.61951809  0.96169775  0.44945952    -0.04200
C2629       C  0.60850622  0.97299069  0.45556323    -0.00400
C2630       C  0.61974170  0.99784929  0.45498219    -0.03000
C2631       C  0.67646165  0.01492895  0.43593493     0.36300
C2632       C  0.58486331  0.95907895  0.46159416     0.39900
C2633       C  0.65413639  0.96461468  0.43733438     0.39000
C2634       C  0.60778003  0.00914122  0.46055858     0.35900
C2635       C  0.64082365  0.03126343  0.42091711     0.36600
C2636       C  0.68035334  0.09266932  0.46984699     0.39900
N2637       N  0.66366085  0.95576099  0.43264009    -0.38200
N2638       N  0.69473467  0.02637020  0.43045031    -0.39800
N2639       N  0.56598177  0.94806200  0.46635300    -0.37500
N2640       N  0.59827298  0.01819049  0.46496719    -0.39900
N2641       N  0.66544931  0.03631826  0.48352488    -0.39700
N2642       N  0.68760727  0.10473449  0.47994454    -0.37300
N2643       N  0.65775804  0.08735573  0.40631498    -0.38400
N2644       N  0.63232893  0.01860762  0.41116430    -0.40000
C2645       C  0.70687284  0.17617312  0.37243069    -0.05000
C2646       C  0.70668268  0.19675448  0.36926239     0.09200
C2647       C  0.70619982  0.21066830  0.38056140    -0.02400
C2648       C  0.70501050  0.20357647  0.39502219    -0.00600
C2649       C  0.70359309  0.18208565  0.39826510    -0.04200
C2650       C  0.70529841  0.16877974  0.38691725     0.02800
C2651       C  0.70561274  0.20340891  0.35404978     0.09600
C2652       C  0.70616904  0.23196252  0.37723325     0.35500
C2653       C  0.70448241  0.14701065  0.38998553     0.38900
C2654       C  0.68374966  0.19275229  0.34689152    -0.04600
C2655       C  0.68185352  0.20244523  0.33381062     0.02600
C2656       C  0.70155741  0.22395490  0.32847898    -0.04200
C2657       C  0.72411188  0.23061763  0.33382849    -0.00400
C2658       C  0.72608535  0.22131019  0.34704948    -0.03000
C2659       C  0.66318422  0.17206727  0.35312132     0.36300
C2660       C  0.74496872  0.24480891  0.32503459     0.39900
C2661       C  0.66042308  0.18897977  0.32537044     0.39000
C2662       C  0.74902158  0.23033390  0.35358409     0.35900
C2663       C  0.70801820  0.16231742  0.36072262     0.36600
C2664       C  0.70565194  0.21873031  0.40653241     0.39900
N2665       N  0.64330038  0.17811196  0.31867327    -0.38200
N2666       N  0.64684081  0.15548842  0.35806416    -0.39800
N2667       N  0.76149861  0.25513610  0.31774487    -0.37500
N2668       N  0.76728856  0.23754346  0.35886503    -0.39900
N2669       N  0.70606510  0.24886674  0.37452045    -0.39700
N2670       N  0.70625718  0.23093248  0.41565638    -0.37300
N2671       N  0.70395466  0.12968346  0.39237228    -0.38400
N2672       N  0.70888106  0.15126421  0.35136092    -0.40000
C2673       C  0.76949357  0.25359878  0.47022515    -0.05000
C2674       C  0.78554922  0.24936278  0.47731141     0.09200
C2675       C  0.78242763  0.22675381  0.47670208    -0.02400
C2676       C  0.76317685  0.20826826  0.46911478    -0.00600
C2677       C  0.74714883  0.21245229  0.46172958    -0.04200
C2678       C  0.75059105  0.23538099  0.46224722     0.02800
C2679       C  0.80578932  0.26872309  0.48556343     0.09600
C2680       C  0.79899077  0.22251395  0.48409116     0.35500
C2681       C  0.73515119  0.24063157  0.45434071     0.38900
C2682       C  0.80425893  0.26997455  0.50071654    -0.04600
C2683       C  0.82351900  0.28792645  0.50857660     0.02600
C2684       C  0.84435910  0.30497847  0.50127204    -0.04200
C2685       C  0.84570860  0.30382588  0.48603039    -0.00400
C2686       C  0.82656859  0.28554549  0.47824193    -0.03000
C2687       C  0.78278759  0.25270029  0.50819737     0.36300
C2688       C  0.86622649  0.32209112  0.47822834     0.39900
C2689       C  0.82198451  0.28848099  0.52422892     0.39000
C2690       C  0.82818219  0.28394689  0.46266693     0.35900
C2691       C  0.77227306  0.27667976  0.47137309     0.36600
C2692       C  0.75949822  0.18476334  0.46949159     0.39900
N2693       N  0.82080446  0.28895496  0.53671093    -0.38200
N2694       N  0.76564830  0.23888552  0.51413618    -0.39800
N2695       N  0.88249834  0.33675342  0.47198667    -0.37500
N2696       N  0.82941131  0.28256002  0.45024961    -0.39900
N2697       N  0.81223581  0.21924111  0.49003234    -0.39700
N2698       N  0.75655992  0.16601537  0.46986105    -0.37300
N2699       N  0.72295439  0.24500757  0.44806485    -0.38400
N2700       N  0.77442575  0.29504339  0.47237905    -0.40000
C2701       C  0.40485668  0.42062790  0.43246919    -0.05000
C2702       C  0.40792100  0.41276033  0.44597572     0.09200
C2703       C  0.39996295  0.41804342  0.45870943    -0.02400
C2704       C  0.39059484  0.43266232  0.45807631    -0.00600
C2705       C  0.38848540  0.44150697  0.44457515    -0.04200
C2706       C  0.39506505  0.43481596  0.43174423     0.02800
C2707       C  0.42202382  0.40135018  0.44684663     0.09600
C2708       C  0.40226975  0.40908104  0.47252208     0.35500
C2709       C  0.39215748  0.44278816  0.41772890     0.38900
C2710       C  0.44578279  0.41493103  0.45138522    -0.04600
C2711       C  0.46008716  0.40530236  0.45082145     0.02600
C2712       C  0.45069782  0.38195754  0.44575988    -0.04200
C2713       C  0.42676266  0.36814165  0.44156116    -0.00400
C2714       C  0.41242478  0.37780362  0.44217071    -0.03000
C2715       C  0.45563922  0.43903211  0.45642408     0.36300
C2716       C  0.41726308  0.34451847  0.43580157     0.39900
C2717       C  0.48447954  0.41944558  0.45556375     0.39000
C2718       C  0.38792312  0.36374025  0.43771766     0.35900
C2719       C  0.41259416  0.41479248  0.41931860     0.36600
C2720       C  0.38495770  0.44000673  0.47146366     0.39900
N2721       N  0.50394104  0.43071089  0.45929853    -0.38200
N2722       N  0.46341027  0.45818554  0.46052751    -0.39800
N2723       N  0.40978473  0.32574626  0.43110962    -0.37500
N2724       N  0.36838958  0.35256573  0.43411982    -0.39900
N2725       N  0.40417333  0.40191174  0.48351000    -0.39700
N2726       N  0.38069476  0.44598086  0.48218027    -0.37300
N2727       N  0.38999146  0.44924013  0.40654689    -0.38400
N2728       N  0.41869019  0.41002900  0.40884678    -0.40000
C2729       C  0.49988710  0.32675695  0.37809906    -0.05000
C2730       C  0.51251289  0.34760155  0.36974076     0.09200
C2731       C  0.51802208  0.36942093  0.37570948    -0.02400
C2732       C  0.51232496  0.37070405  0.39023320    -0.00600
C2733       C  0.50136897  0.35013790  0.39905438    -0.04200
C2734       C  0.49438879  0.32796585  0.39273060     0.02800
C2735       C  0.52412626  0.34755677  0.35585936     0.09600
C2736       C  0.53089508  0.39085017  0.36709048     0.35500
C2737       C  0.48301706  0.30655372  0.40143668     0.38900
C2738       C  0.51438539  0.34721622  0.34229721    -0.04600
C2739       C  0.52693271  0.34965731  0.32932758     0.02600
C2740       C  0.54885894  0.35081951  0.32975517    -0.04200
C2741       C  0.55907077  0.35282191  0.34376152    -0.00400
C2742       C  0.54661727  0.35078628  0.35653025    -0.03000
C2743       C  0.49166200  0.34512742  0.34177545     0.36300
C2744       C  0.58279839  0.35743678  0.34540546     0.39900
C2745       C  0.51834767  0.35406756  0.31610500     0.39000
C2746       C  0.55728136  0.35266266  0.37058689     0.35900
C2747       C  0.49363623  0.30421519  0.37181297     0.36600
C2748       C  0.51811079  0.39340144  0.39606813     0.39900
N2749       N  0.51109736  0.35800392  0.30583637    -0.38200
N2750       N  0.47353125  0.34345307  0.34137187    -0.39800
N2751       N  0.60148159  0.36068249  0.34692945    -0.37500
N2752       N  0.56566488  0.35423266  0.38180878    -0.39900
N2753       N  0.54126476  0.40791179  0.36020568    -0.39700
N2754       N  0.52278792  0.41152273  0.40071222    -0.37300
N2755       N  0.47400847  0.28948633  0.40839188    -0.38400
N2756       N  0.48858942  0.28618729  0.36682961    -0.40000
C2757       C  0.56895600  0.42763074  0.49103673    -0.05000
C2758       C  0.58987110  0.44458696  0.48389138     0.09200
C2759       C  0.59206460  0.44285349  0.46884889    -0.02400
C2760       C  0.57332476  0.42443876  0.46088372    -0.00600
C2761       C  0.55194900  0.40766307  0.46791793    -0.04200
C2762       C  0.55000900  0.40929861  0.48310773     0.02800
C2763       C  0.60987303  0.46432954  0.49216419     0.09600
C2764       C  0.61372772  0.46024532  0.46156937     0.35500
C2765       C  0.52880743  0.39181713  0.49074003     0.38900
C2766       C  0.62636574  0.46065424  0.49918015    -0.04600
C2767       C  0.64596948  0.47954795  0.50633330     0.02600
C2768       C  0.64923424  0.50238524  0.50654720    -0.04200
C2769       C  0.63263189  0.50599365  0.49939228    -0.00400
C2770       C  0.61302612  0.48699801  0.49227885    -0.03000
C2771       C  0.62335230  0.43743141  0.49872852     0.36300
C2772       C  0.63533824  0.52909109  0.49947434     0.39900
C2773       C  0.66329097  0.47556728  0.51288439     0.39000
C2774       C  0.59607173  0.49072423  0.48493953     0.35900
C2775       C  0.56701416  0.42903384  0.50659573     0.36600
C2776       C  0.57608311  0.42333816  0.44537420     0.39900
N2777       N  0.67711820  0.47235542  0.51805529    -0.38200
N2778       N  0.62086614  0.41887737  0.49831555    -0.39800
N2779       N  0.63742478  0.54748396  0.49942977    -0.37500
N2780       N  0.58252870  0.49359776  0.47903169    -0.39900
N2781       N  0.63102109  0.47421731  0.45583387    -0.39700
N2782       N  0.57842213  0.42248206  0.43301898    -0.37300
N2783       N  0.51188671  0.37787775  0.49681828    -0.38400
N2784       N  0.56547212  0.43004805  0.51901685    -0.40000
C2785       C  0.41300010  0.99394573  0.53925740    -0.05000
C2786       C  0.41345667  0.00641516  0.52681622     0.09200
C2787       C  0.40375420  0.99419745  0.51374581    -0.02400
C2788       C  0.39442918  0.96965031  0.51293106    -0.00600
C2789       C  0.39444358  0.95711086  0.52531045    -0.04200
C2790       C  0.40343008  0.96935576  0.53855806     0.02800
C2791       C  0.42645618  0.03279884  0.52709595     0.09600
C2792       C  0.40411625  0.00714415  0.50101572     0.35500
C2793       C  0.40275473  0.95675663  0.55155180     0.38900
C2794       C  0.45098453  0.04592624  0.52458649    -0.04600
C2795       C  0.46373054  0.07082003  0.52518792     0.02600
C2796       C  0.45183733  0.08283326  0.52788471    -0.04200
C2797       C  0.42711786  0.06958154  0.53011400    -0.00400
C2798       C  0.41452260  0.04459623  0.52989444    -0.03000
C2799       C  0.46301068  0.03365851  0.52119446     0.36300
C2800       C  0.41470494  0.08155698  0.53309434     0.39900
C2801       C  0.48903622  0.08393507  0.52266382     0.39000
C2802       C  0.38932057  0.03094972  0.53265741     0.35900
C2803       C  0.42293426  0.00663662  0.55270215     0.36600
C2804       C  0.38618315  0.95771455  0.49910486     0.39900
N2805       N  0.50922295  0.09428640  0.52072583    -0.38200
N2806       N  0.47240829  0.02372448  0.51841965    -0.39800
N2807       N  0.40481828  0.09113930  0.53545461    -0.37500
N2808       N  0.36921671  0.02003403  0.53489723    -0.39900
N2809       N  0.40441721  0.01754573  0.49089789    -0.39700
N2810       N  0.37972408  0.94823373  0.48805727    -0.37300
N2811       N  0.40230508  0.94679323  0.56193211    -0.38400
N2812       N  0.43093307  0.01683668  0.56339056    -0.40000
C2813       C  0.60707293  0.17047855  0.46277710    -0.05000
C2814       C  0.59563387  0.15555962  0.47475380     0.09200
C2815       C  0.60211970  0.13958855  0.47934409    -0.02400
C2816       C  0.62020976  0.13871897  0.47210369    -0.00600
C2817       C  0.63209553  0.15402446  0.46029460    -0.04200
C2818       C  0.62541384  0.16990915  0.45563791     0.02800
C2819       C  0.57730741  0.15723509  0.48295224     0.09600
C2820       C  0.59031975  0.12425575  0.49167465     0.35500
C2821       C  0.63819828  0.18660847  0.44401508     0.38900
C2822       C  0.55318159  0.14021240  0.48084577    -0.04600
C2823       C  0.53598565  0.14067671  0.48943614     0.02600
C2824       C  0.54282688  0.15871653  0.49992858    -0.04200
C2825       C  0.56702848  0.17647935  0.50145202    -0.00400
C2826       C  0.58419854  0.17541182  0.49321070    -0.03000
C2827       C  0.54612309  0.12197764  0.46995143     0.36300
C2828       C  0.57436868  0.19628090  0.51118981     0.39900
C2829       C  0.51139743  0.12188356  0.48783817     0.39000
C2830       C  0.60908090  0.19273067  0.49549213     0.35900
C2831       C  0.60011451  0.18662783  0.45793685     0.36600
C2832       C  0.62628994  0.12177546  0.47669042     0.39900
N2833       N  0.49180059  0.10685232  0.48660508    -0.38200
N2834       N  0.54049184  0.10745213  0.46125120    -0.39800
N2835       N  0.58025999  0.21217949  0.51887295    -0.37500
N2836       N  0.62894451  0.20643849  0.49732411    -0.39900
N2837       N  0.58085516  0.11204019  0.50150744    -0.39700
N2838       N  0.63118315  0.10828224  0.48031601    -0.37300
N2839       N  0.64849775  0.20000165  0.43480489    -0.38400
N2840       N  0.59456153  0.19950715  0.45407953    -0.40000
C2841       C  0.49609715  0.24660976  0.50049683    -0.05000
C2842       C  0.48096023  0.23958577  0.48845305     0.09200
C2843       C  0.46690117  0.21543142  0.48475653    -0.02400
C2844       C  0.46789112  0.19824594  0.49313849    -0.00600
C2845       C  0.48320506  0.20522161  0.50524112    -0.04200
C2846       C  0.49727082  0.22958348  0.50886233     0.02800
C2847       C  0.48069124  0.25796851  0.47934207     0.09600
C2848       C  0.45200238  0.20842683  0.47201672     0.35500
C2849       C  0.51306005  0.23736602  0.52120665     0.38900
C2850       C  0.49582493  0.26749218  0.46727589    -0.04600
C2851       C  0.49679060  0.28588506  0.45916449     0.02600
C2852       C  0.48336206  0.29567176  0.46345338    -0.04200
C2853       C  0.46765540  0.28558062  0.47535587    -0.00400
C2854       C  0.46639436  0.26680259  0.48326334    -0.03000
C2855       C  0.51122916  0.25904702  0.46361407     0.36300
C2856       C  0.45347700  0.29502153  0.47993912     0.39900
C2857       C  0.51135094  0.29437358  0.44622578     0.39000
C2858       C  0.45117466  0.25720386  0.49586720     0.35900
C2859       C  0.51094911  0.27157259  0.50403139     0.36600
C2860       C  0.45406588  0.17360449  0.48874412     0.39900
N2861       N  0.52285251  0.30110810  0.43586719    -0.38200
N2862       N  0.52370894  0.25250185  0.46080303    -0.39800
N2863       N  0.44209129  0.30245435  0.48362421    -0.37500
N2864       N  0.43919629  0.24962044  0.50599145    -0.39900
N2865       N  0.44027513  0.20292789  0.46178779    -0.39700
N2866       N  0.44305826  0.15398255  0.48516503    -0.37300
N2867       N  0.52579110  0.24363556  0.53098162    -0.38400
N2868       N  0.52280182  0.29150900  0.50675478    -0.40000
C2869       C  0.51790194  0.19595941  0.83933496    -0.05000
C2870       C  0.53009246  0.20430817  0.85251959     0.09200
C2871       C  0.55397104  0.22247379  0.85242646    -0.02400
C2872       C  0.56550049  0.23313200  0.83932214    -0.00600
C2873       C  0.55331854  0.22568470  0.82566873    -0.04200
C2874       C  0.52939997  0.20610935  0.82595159     0.02800
C2875       C  0.51836008  0.19376573  0.86675212     0.09600
C2876       C  0.56682215  0.23019223  0.86603995     0.35500
C2877       C  0.51642188  0.19483972  0.81288077     0.38900
C2878       C  0.51706412  0.17317377  0.87191264    -0.04600
C2879       C  0.51030288  0.16577214  0.88635303     0.02600
C2880       C  0.50489629  0.17899680  0.89576149    -0.04200
C2881       C  0.50488273  0.19882956  0.89036408    -0.00400
C2882       C  0.51175356  0.20627134  0.87592207    -0.03000
C2883       C  0.52383416  0.16027886  0.86254999     0.36300
C2884       C  0.49930848  0.21250972  0.89989668     0.39900
C2885       C  0.50894765  0.14451366  0.89154790     0.39000
C2886       C  0.51340025  0.22763509  0.87070379     0.35900
C2887       C  0.49340945  0.17652502  0.83963717     0.36600
C2888       C  0.59016529  0.25223066  0.84029790     0.39900
N2889       N  0.50780736  0.12756280  0.89574295    -0.38200
N2890       N  0.52926628  0.15001080  0.85508276    -0.39800
N2891       N  0.49487498  0.22341085  0.90751943    -0.37500
N2892       N  0.51493031  0.24479277  0.86656142    -0.54300
N2893       N  0.57694168  0.23624422  0.87689913    -0.39700
N2894       N  0.60963279  0.26769688  0.84128714    -0.37300
N2895       N  0.50517984  0.18484056  0.80283615    -0.38400
N2896       N  0.47391094  0.16098024  0.83996935    -0.40000
C2897       C  0.54397883  0.23446747  0.61034088    -0.05000
C2898       C  0.52291205  0.21230084  0.61145203     0.09200
C2899       C  0.51342118  0.20315979  0.62523571    -0.02400
C2900       C  0.52561158  0.21552731  0.63798090    -0.00600
C2901       C  0.54832807  0.23687550  0.63704752    -0.04200
C2902       C  0.55633706  0.24686647  0.62287397     0.02800
C2903       C  0.51200776  0.19812317  0.59793344     0.09600
C2904       C  0.49104445  0.18072527  0.62623527     0.35500
C2905       C  0.57802846  0.26971041  0.62077904     0.38900
C2906       C  0.51738144  0.18113778  0.59373609    -0.04600
C2907       C  0.51087762  0.17062109  0.57991796     0.02600
C2908       C  0.49983377  0.17775034  0.56991710    -0.04200
C2909       C  0.49374340  0.19418750  0.57426476    -0.00400
C2910       C  0.49949087  0.20405445  0.58831678    -0.03000
C2911       C  0.53104182  0.17567861  0.60331887     0.36300
C2912       C  0.48336458  0.20244704  0.56390862     0.39900
C2913       C  0.51570350  0.15251375  0.57597332     0.39000
C2914       C  0.49368229  0.22129679  0.59262099     0.35900
C2915       C  0.55362148  0.24405169  0.59609169     0.36600
C2916       C  0.51341527  0.20655053  0.65161940     0.39900
N2917       N  0.51944271  0.13798456  0.57285402    -0.38200
N2918       N  0.54216349  0.17161008  0.61095397    -0.39800
N2919       N  0.47532873  0.20913692  0.55554196    -0.37500
N2920       N  0.48904494  0.23508523  0.59599231    -0.39900
N2921       N  0.47323439  0.16279957  0.62701853    -0.39700
N2922       N  0.50277162  0.19875457  0.66222266    -0.37300
N2923       N  0.59544964  0.28762445  0.61877024    -0.38400
N2924       N  0.56124074  0.25153298  0.58472411    -0.40000
C2925       C  0.57354204  0.26585608  0.74625996    -0.05000
C2926       C  0.56931486  0.24533798  0.73892627     0.09200
C2927       C  0.56389751  0.22511645  0.74710651    -0.02400
C2928       C  0.56335095  0.22563037  0.76243537    -0.00600
C2929       C  0.56872557  0.24657024  0.76977441    -0.04200
C2930       C  0.57339619  0.26652055  0.76155188     0.02800
C2931       C  0.57050179  0.24518619  0.72260394     0.09600
C2932       C  0.55951936  0.20396277  0.73972861     0.35500
C2933       C  0.57801912  0.28791162  0.76874236     0.38900
C2934       C  0.59052291  0.24789364  0.71550190    -0.04600
C2935       C  0.59262820  0.25008806  0.70024405     0.02600
C2936       C  0.57448144  0.24912033  0.69176939    -0.04200
C2937       C  0.55417371  0.24590304  0.69894702    -0.00400
C2938       C  0.55214510  0.24370354  0.71420425    -0.03000
C2939       C  0.60929304  0.24870413  0.72385060     0.36300
C2940       C  0.53607691  0.24671955  0.69081104     0.39900
C2941       C  0.61403009  0.25405814  0.69355250     0.39000
C2942       C  0.53122318  0.24026354  0.72136703     0.35900
C2943       C  0.57838008  0.28657003  0.73809245     0.36600
C2944       C  0.55851695  0.20497692  0.77066353     0.39900
N2945       N  0.63172281  0.25759406  0.68896385    -0.38200
N2946       N  0.62451255  0.24916219  0.73010360    -0.39800
N2947       N  0.52171160  0.24753190  0.68433967    -0.37500
N2948       N  0.51457838  0.23751731  0.72715090    -0.39900
N2949       N  0.55621880  0.18715227  0.73382570    -0.39700
N2950       N  0.55459747  0.18852253  0.77728898    -0.37300
N2951       N  0.58168246  0.30523470  0.77410560    -0.38400
N2952       N  0.58206384  0.30322592  0.73180443    -0.40000
C2953       C  0.70234580  0.51974099  0.88319732    -0.05000
C2954       C  0.70880727  0.53816492  0.87313918     0.09200
C2955       C  0.71333839  0.56025716  0.87803627    -0.02400
C2956       C  0.71072468  0.56369495  0.89285999    -0.00600
C2957       C  0.70345800  0.54497825  0.90289728    -0.04200
C2958       C  0.69963998  0.52307604  0.89798234     0.02800
C2959       C  0.71017616  0.53371263  0.85736604     0.09600
C2960       C  0.72043506  0.57934794  0.86775722     0.35500
C2961       C  0.69362491  0.50409264  0.90817948     0.38900
C2962       C  0.68929470  0.52002452  0.84929332    -0.04600
C2963       C  0.69018904  0.51136004  0.83551090     0.02600
C2964       C  0.71198259  0.51561271  0.83001956    -0.04200
C2965       C  0.73291236  0.53422626  0.83652146    -0.00400
C2966       C  0.73211088  0.54204440  0.85057676    -0.03000
C2967       C  0.66686123  0.51423217  0.85544000     0.36300
C2968       C  0.75481913  0.54678607  0.82840914     0.39900
C2969       C  0.66873188  0.49822721  0.82706095     0.39000
C2970       C  0.75384486  0.55789131  0.85823270     0.35900
C2971       C  0.69865691  0.49731962  0.87827706     0.36600
C2972       C  0.71469632  0.58625733  0.89763780     0.39900
N2973       N  0.65155005  0.48770918  0.82037801    -0.38200
N2974       N  0.64902658  0.50970773  0.86040357    -0.39800
N2975       N  0.77232580  0.55692148  0.82195614    -0.37500
N2976       N  0.77121424  0.57047680  0.86434735    -0.39900
N2977       N  0.72624318  0.59459126  0.85953539    -0.39700
N2978       N  0.71788290  0.60427606  0.90144363    -0.37300
N2979       N  0.68888498  0.48895935  0.91630110    -0.38400
N2980       N  0.69576510  0.47950265  0.87428395    -0.40000
C2981       C  0.66067101  0.39135297  0.81791414    -0.05000
C2982       C  0.64137643  0.38267645  0.80836204     0.09200
C2983       C  0.63708013  0.39871387  0.80118783    -0.02400
C2984       C  0.65289618  0.42333925  0.80294981    -0.00600
C2985       C  0.67400386  0.43188534  0.81084363    -0.04200
C2986       C  0.67721901  0.41582540  0.81889515     0.02800
C2987       C  0.62742726  0.35679568  0.80501845     0.09600
C2988       C  0.61698703  0.38990132  0.79160092     0.35500
C2989       C  0.69712807  0.42405964  0.82848926     0.38900
C2990       C  0.60432308  0.34182508  0.81023882    -0.04600
C2991       C  0.59279689  0.31709205  0.80830420     0.02600
C2992       C  0.60566610  0.30679550  0.80340962    -0.04200
C2993       C  0.62903227  0.32233645  0.79824608    -0.00400
C2994       C  0.63872844  0.34692141  0.79781649    -0.03000
C2995       C  0.59256370  0.35181580  0.81779820     0.36300
C2996       C  0.64445608  0.31417979  0.79434703     0.39900
C2997       C  0.56747513  0.30276847  0.81059349     0.39000
C2998       C  0.66069560  0.36232580  0.79011331     0.35900
C2999       C  0.66367209  0.37490873  0.82656894     0.36600
C3000       C  0.64763752  0.43986911  0.79648844     0.39900
N3001       N  0.54724644  0.29144819  0.81233425    -0.38200
N3002       N  0.58325772  0.35982027  0.82388797    -0.39800
N3003       N  0.65811449  0.30936794  0.79114614    -0.37500
N3004       N  0.67789069  0.37457696  0.78371320    -0.39900
N3005       N  0.60089872  0.38274547  0.78396905    -0.39700
N3006       N  0.64342550  0.45304006  0.79132444    -0.37300
N3007       N  0.71225347  0.42913195  0.83657653    -0.38400
N3008       N  0.66599824  0.36179642  0.83348254    -0.40000
C3009       C  0.73476775  0.56552375  0.59602206    -0.05000
C3010       C  0.72792336  0.54268952  0.60097646     0.09200
C3011       C  0.71937160  0.52392139  0.59097574    -0.02400
C3012       C  0.71610978  0.52747117  0.57632400    -0.00600
C3013       C  0.72199928  0.55012562  0.57136718    -0.04200
C3014       C  0.73206291  0.56931802  0.58125566     0.02800
C3015       C  0.72842236  0.53770769  0.61679595     0.09600
C3016       C  0.71409897  0.50087791  0.59582803     0.35500
C3017       C  0.73887824  0.59284552  0.57643797     0.38900
C3018       C  0.70735219  0.52675694  0.62493243    -0.04600
C3019       C  0.70696172  0.51880408  0.63916012     0.02600
C3020       C  0.72714627  0.51962701  0.64489530    -0.04200
C3021       C  0.74900138  0.53498089  0.63787136    -0.00400
C3022       C  0.74954702  0.54312384  0.62363634    -0.03000
C3023       C  0.68586823  0.52306863  0.61848932     0.36300
C3024       C  0.77084418  0.54500671  0.64583402     0.39900
C3025       C  0.68613720  0.51097341  0.64801948     0.39000
C3026       C  0.77176880  0.55675616  0.61594088     0.35900
C3027       C  0.74433421  0.58504645  0.60618439     0.36600
C3028       C  0.70701227  0.50771009  0.56634023     0.39900
N3029       N  0.66945426  0.50471174  0.65501678    -0.38200
N3030       N  0.66869080  0.51997486  0.61332218    -0.39800
N3031       N  0.78846770  0.55419480  0.65211936    -0.37500
N3032       N  0.78947844  0.56769266  0.60977173    -0.39900
N3033       N  0.71010488  0.48260216  0.59974565    -0.39700
N3034       N  0.69969095  0.49192478  0.55839596    -0.37300
N3035       N  0.74441204  0.61164648  0.57258875    -0.38400
N3036       N  0.75210934  0.60065021  0.61428546    -0.40000
C3037       C  0.61008484  0.35524933  0.65566005    -0.05000
C3038       C  0.62488117  0.36512244  0.66782937     0.09200
C3039       C  0.62282360  0.35005144  0.67920004    -0.02400
C3040       C  0.60673771  0.32541943  0.67815220    -0.00600
C3041       C  0.59545481  0.31494213  0.66481267    -0.04200
C3042       C  0.59607332  0.33037929  0.65383813     0.02800
C3043       C  0.64335250  0.39114747  0.66828332     0.09600
C3044       C  0.63807279  0.35967350  0.69176918     0.35500
C3045       C  0.58354286  0.32157072  0.64027827     0.38900
C3046       C  0.64278441  0.40601849  0.67900091    -0.04600
C3047       C  0.66119125  0.43007315  0.67984731     0.02600
C3048       C  0.67900770  0.43998536  0.66916641    -0.04200
C3049       C  0.67911790  0.42533069  0.65814402    -0.00400
C3050       C  0.66202564  0.40092828  0.65810028    -0.03000
C3051       C  0.62333228  0.39661540  0.68921557     0.36300
C3052       C  0.69764316  0.43504549  0.64723381     0.39900
C3053       C  0.66209537  0.44421251  0.69201509     0.39000
C3054       C  0.66443556  0.38593426  0.64780318     0.35900
C3055       C  0.61014455  0.37085318  0.64464352     0.36600
C3056       C  0.60124203  0.31136361  0.69118354     0.39900
N3057       N  0.66249328  0.45476498  0.70206205    -0.38200
N3058       N  0.60792969  0.38917620  0.69744487    -0.39800
N3059       N  0.71230269  0.44266498  0.63849199    -0.37500
N3060       N  0.66721705  0.37476218  0.63941167    -0.39900
N3061       N  0.65025238  0.36732324  0.70177608    -0.39700
N3062       N  0.59734038  0.30085917  0.70186117    -0.37300
N3063       N  0.57365608  0.31534154  0.62934731    -0.38400
N3064       N  0.61027902  0.38329559  0.63584680    -0.40000
C3065       C  0.70522335  0.50872040  0.72105186    -0.05000
C3066       C  0.72183816  0.50803002  0.73011699     0.09200
C3067       C  0.74141667  0.50861966  0.72385161    -0.02400
C3068       C  0.74323767  0.50774280  0.70867907    -0.00600
C3069       C  0.72567313  0.50659467  0.69961659    -0.04200
C3070       C  0.70727998  0.50828617  0.70582581     0.02800
C3071       C  0.71742818  0.50384918  0.74611095     0.09600
C3072       C  0.75930535  0.50924840  0.73304147     0.35500
C3073       C  0.68962570  0.50806512  0.69661388     0.38900
C3074       C  0.70296884  0.48054006  0.75130287    -0.04600
C3075       C  0.70034346  0.47579170  0.76633888     0.02600
C3076       C  0.71224700  0.49450543  0.77656543    -0.04200
C3077       C  0.72714119  0.51799025  0.77111169    -0.00400
C3078       C  0.72912021  0.52258094  0.75604418    -0.03000
C3079       C  0.69121313  0.46118824  0.74100223     0.36300
C3080       C  0.74250461  0.53732403  0.78074070     0.39900
C3081       C  0.68614767  0.45125632  0.77078566     0.39000
C3082       C  0.74364669  0.54664011  0.75067399     0.35900
C3083       C  0.68548209  0.50885451  0.72744826     0.36600
C3084       C  0.76312776  0.50772389  0.70241904     0.39900
N3085       N  0.67522795  0.43123928  0.77346685    -0.38200
N3086       N  0.68189316  0.44579744  0.73278925    -0.39800
N3087       N  0.75497030  0.55280094  0.78832985    -0.37500
N3088       N  0.75512793  0.56584013  0.74638188    -0.39900
N3089       N  0.77376972  0.50989558  0.74025578    -0.39700
N3090       N  0.77915823  0.50781559  0.69759778    -0.37300
N3091       N  0.67537990  0.50767616  0.68930671    -0.38400
N3092       N  0.66971272  0.50891180  0.73258561    -0.40000
C3093       C  0.84158839  0.33518697  0.83919785    -0.05000
C3094       C  0.85533057  0.35549611  0.84768955     0.09200
C3095       C  0.86167654  0.37779979  0.84216156    -0.02400
C3096       C  0.85199974  0.37949251  0.82896991    -0.00600
C3097       C  0.83454099  0.35863853  0.82168647    -0.04200
C3098       C  0.83211584  0.33685638  0.82594454     0.02800
C3099       C  0.86146968  0.35317725  0.86290701     0.09600
C3100       C  0.87776336  0.39900366  0.85028649     0.35500
C3101       C  0.81988494  0.31595399  0.81686443     0.38900
C3102       C  0.88294971  0.35495315  0.86618902    -0.04600
C3103       C  0.88870569  0.35349884  0.88072077     0.02600
C3104       C  0.87283959  0.35005592  0.89204003    -0.04200
C3105       C  0.85104231  0.34768003  0.88858670    -0.00400
C3106       C  0.84544106  0.34924331  0.87410312    -0.03000
C3107       C  0.89915748  0.35849098  0.85459045     0.36300
C3108       C  0.83409224  0.34329465  0.89989795     0.39900
C3109       C  0.91147086  0.35678957  0.88402172     0.39000
C3110       C  0.82309589  0.34685553  0.87063495     0.35900
C3111       C  0.83627639  0.31235304  0.84448743     0.36600
C3112       C  0.86183521  0.40270509  0.82256201     0.39900
N3113       N  0.92968066  0.35952186  0.88665822    -0.38200
N3114       N  0.91203545  0.36125695  0.84530991    -0.39800
N3115       N  0.82057716  0.33984007  0.90891037    -0.37500
N3116       N  0.80531273  0.34492315  0.86774755    -0.39900
N3117       N  0.89058605  0.41591262  0.85676624    -0.39700
N3118       N  0.87034212  0.42157390  0.81779650    -0.37300
N3119       N  0.80992328  0.29904937  0.80983684    -0.38400
N3120       N  0.83192603  0.29414504  0.84878919    -0.40000
C3121       C  0.80698545  0.43950632  0.80194002    -0.05000
C3122       C  0.78337043  0.43323530  0.80312622     0.09200
C3123       C  0.76500361  0.40959888  0.80071270    -0.02400
C3124       C  0.77018194  0.39216397  0.79743250    -0.00600
C3125       C  0.79378751  0.39777596  0.79804562    -0.04200
C3126       C  0.81215430  0.42192924  0.79908306     0.02800
C3127       C  0.77733344  0.45164557  0.80520828     0.09600
C3128       C  0.74063998  0.40324347  0.80179730     0.35500
C3129       C  0.83611813  0.42897158  0.79544510     0.38900
C3130       C  0.77382989  0.46203981  0.79300210    -0.04600
C3131       C  0.76217934  0.47439078  0.79445633     0.02600
C3132       C  0.75382021  0.47630819  0.80813911    -0.04200
C3133       C  0.76101143  0.46930973  0.82063341    -0.00400
C3134       C  0.77220552  0.45644340  0.81909709    -0.03000
C3135       C  0.78139947  0.45912830  0.77884972     0.36300
C3136       C  0.75638341  0.47444123  0.83506654     0.39900
C3137       C  0.75930451  0.48546427  0.78182432     0.39000
C3138       C  0.77749627  0.44716573  0.83173594     0.35900
C3139       C  0.82590603  0.46400792  0.80373709     0.36600
C3140       C  0.75132533  0.36956224  0.79205799     0.39900
N3141       N  0.75765934  0.49435739  0.77153345    -0.38200
N3142       N  0.78756129  0.45685012  0.76759544    -0.39800
N3143       N  0.75278459  0.47847580  0.84663550    -0.37500
N3144       N  0.78171690  0.43976260  0.84182121    -0.39900
N3145       N  0.72132647  0.39839505  0.80290811    -0.39700
N3146       N  0.73584236  0.35225140  0.78717566    -0.37300
N3147       N  0.85507628  0.43474746  0.79196204    -0.38400
N3148       N  0.84099805  0.48355234  0.80525605    -0.40000
C3149       C  0.66532906  0.26929144  0.78440035    -0.05000
C3150       C  0.67728820  0.26915374  0.79689511     0.09200
C3151       C  0.66412242  0.25626327  0.80908337    -0.02400
C3152       C  0.63991753  0.24815376  0.81002758    -0.00600
C3153       C  0.62817707  0.25129750  0.79809925    -0.04200
C3154       C  0.64063213  0.25895484  0.78476442     0.02800
C3155       C  0.70352055  0.28528151  0.79813744     0.09600
C3156       C  0.67606820  0.25303697  0.82116936     0.35500
C3157       C  0.62855305  0.25710773  0.77139822     0.38900
C3158       C  0.71285928  0.30459824  0.80787736    -0.04600
C3159       C  0.73741643  0.32006335  0.80921720     0.02600
C3160       C  0.75275617  0.31759350  0.79995432    -0.04200
C3161       C  0.74362547  0.29800497  0.79054619    -0.00400
C3162       C  0.71904168  0.28167324  0.78976066    -0.03000
C3163       C  0.69717264  0.30923771  0.81607823     0.36300
C3164       C  0.75954154  0.29426002  0.78198794     0.39900
C3165       C  0.74684614  0.33919959  0.81969521     0.39000
C3166       C  0.70972983  0.26136566  0.78022310     0.35900
C3167       C  0.67862815  0.28222127  0.77163425     0.36600
C3168       C  0.62828296  0.23759396  0.82364646     0.39900
N3169       N  0.75432321  0.35452516  0.82798803    -0.38200
N3170       N  0.68460988  0.31290122  0.82256111    -0.39800
N3171       N  0.77203027  0.29088692  0.77520342    -0.37500
N3172       N  0.70231629  0.24531301  0.77248660    -0.39900
N3173       N  0.68551188  0.25050977  0.83083897    -0.39700
N3174       N  0.61971256  0.22886434  0.83463099    -0.37300
N3175       N  0.61937068  0.25611614  0.76059917    -0.38400
N3176       N  0.68931172  0.29273960  0.76152732    -0.40000
C3177       C  0.83993662  0.32816793  0.61757217    -0.05000
C3178       C  0.85671328  0.34930957  0.61055844     0.09200
C3179       C  0.86720322  0.37085648  0.61821346    -0.02400
C3180       C  0.85846885  0.37163548  0.63195683    -0.00600
C3181       C  0.83796196  0.35120398  0.63758343    -0.04200
C3182       C  0.83145131  0.32902871  0.63139060     0.02800
C3183       C  0.86329365  0.34893888  0.59514690     0.09600
C3184       C  0.88677693  0.39226591  0.61187488     0.35500
C3185       C  0.81778506  0.30728309  0.63961081     0.38900
C3186       C  0.84777762  0.34653178  0.58397794    -0.04600
C3187       C  0.85446799  0.34770705  0.56938686     0.02600
C3188       C  0.87682975  0.35149120  0.56588635    -0.04200
C3189       C  0.89210669  0.35334396  0.57708029    -0.00400
C3190       C  0.88520862  0.35177451  0.59166717    -0.03000
C3191       C  0.82499855  0.34310922  0.58753104     0.36300
C3192       C  0.91548681  0.35826097  0.57365072     0.39900
C3193       C  0.83816607  0.34471856  0.55798925     0.39000
C3194       C  0.90075812  0.35337552  0.60314920     0.35900
C3195       C  0.83132624  0.30560456  0.61048335     0.36600
C3196       C  0.87154434  0.39300432  0.64055911     0.39900
N3197       N  0.82517813  0.34232341  0.54889807    -0.38200
N3198       N  0.80680440  0.34027861  0.59038343    -0.39800
N3199       N  0.93418383  0.36235152  0.57087436    -0.37500
N3200       N  0.91312949  0.35469720  0.61234907    -0.39900
N3201       N  0.90253598  0.40927520  0.60686236    -0.39700
N3202       N  0.88207078  0.41007834  0.64738882    -0.37300
N3203       N  0.80707695  0.28992864  0.64620073    -0.38400
N3204       N  0.82445694  0.28765782  0.60475388    -0.40000
C3205       C  0.78734024  0.41856209  0.65133733    -0.05000
C3206       C  0.78857632  0.42871586  0.66492420     0.09200
C3207       C  0.79937306  0.42452541  0.67659678    -0.02400
C3208       C  0.80811376  0.40950512  0.67485959    -0.00600
C3209       C  0.80550343  0.39785782  0.66153526    -0.04200
C3210       C  0.79572857  0.40320212  0.64959942     0.02800
C3211       C  0.77696586  0.44247403  0.66719347     0.09600
C3212       C  0.80091458  0.43525953  0.69055523     0.35500
C3213       C  0.79377668  0.39280630  0.63550818     0.38900
C3214       C  0.75398659  0.43103093  0.67285853    -0.04600
C3215       C  0.74222255  0.44334436  0.67442439     0.02600
C3216       C  0.75336224  0.46760341  0.67006681    -0.04200
C3217       C  0.77748359  0.47938192  0.66572669    -0.00400
C3218       C  0.78892598  0.46676198  0.66399343    -0.03000
C3219       C  0.74242913  0.40628602  0.67714360     0.36300
C3220       C  0.79153808  0.50486538  0.66415909     0.39900
C3221       C  0.71905548  0.43031676  0.68099678     0.39000
C3222       C  0.81323790  0.47879929  0.65904768     0.35900
C3223       C  0.77667757  0.42340617  0.63924681     0.36600
C3224       C  0.82057263  0.40702750  0.68679539     0.39900
N3225       N  0.70104946  0.41883262  0.68677959    -0.38200
N3226       N  0.73335155  0.38665474  0.68063522    -0.39800
N3227       N  0.80371358  0.52520126  0.66313961    -0.37500
N3228       N  0.83262070  0.48831815  0.65511167    -0.39900
N3229       N  0.80202841  0.44368864  0.70170941    -0.39700
N3230       N  0.83068835  0.40625260  0.69668668    -0.37300
N3231       N  0.79251145  0.38520461  0.62405797    -0.38400
N3232       N  0.76817340  0.42735075  0.62964447    -0.40000
C3233       C  0.72041106  0.30892349  0.64389748    -0.05000
C3234       C  0.70647223  0.30276609  0.65643545     0.09200
C3235       C  0.71713533  0.30692623  0.67010681    -0.02400
C3236       C  0.74179155  0.31724848  0.67133538    -0.00600
C3237       C  0.75638269  0.32398847  0.65874684    -0.04200
C3238       C  0.74512744  0.31997737  0.64493611     0.02800
C3239       C  0.68061590  0.29318117  0.65521845     0.09600
C3240       C  0.70257221  0.30096508  0.68301331     0.35500
C3241       C  0.75843022  0.32797846  0.63151563     0.38900
C3242       C  0.66391820  0.26885263  0.65751313    -0.04600
C3243       C  0.63955952  0.26016099  0.65677163     0.02600
C3244       C  0.63194097  0.27594002  0.65428756    -0.04200
C3245       C  0.64853488  0.29962811  0.65057055    -0.00400
C3246       C  0.67283765  0.30846657  0.65141180    -0.03000
C3247       C  0.67182076  0.25294748  0.66100189     0.36300
C3248       C  0.64048461  0.31415077  0.64455190     0.39900
C3249       C  0.62233022  0.23511002  0.65872769     0.39000
C3250       C  0.68983894  0.33333609  0.64853170     0.35900
C3251       C  0.70914136  0.30421735  0.62980035     0.36600
C3252       C  0.75138177  0.32103027  0.68580373     0.39900
N3253       N  0.60848373  0.21512933  0.66020984    -0.38200
N3254       N  0.67814141  0.24030111  0.66391696    -0.39800
N3255       N  0.63392880  0.32525674  0.63913549    -0.37500
N3256       N  0.70344176  0.35314765  0.64622462    -0.39900
N3257       N  0.69094885  0.29620132  0.69327655    -0.39700
N3258       N  0.75771634  0.32403918  0.69770020    -0.37300
N3259       N  0.76849029  0.33369318  0.62060042    -0.38400
N3260       N  0.70009919  0.30051621  0.61860758    -0.40000
C3261       C  0.80732743  0.33056825  0.71420231    -0.05000
C3262       C  0.82505279  0.35088023  0.72154335     0.09200
C3263       C  0.84375582  0.36945993  0.71352697    -0.02400
C3264       C  0.84287273  0.36914629  0.69825902    -0.00600
C3265       C  0.82302766  0.35057117  0.69111587    -0.04200
C3266       C  0.80701127  0.33010269  0.69895181     0.02800
C3267       C  0.82310447  0.35338865  0.73751697     0.09600
C3268       C  0.86337072  0.38922254  0.72100317     0.35500
C3269       C  0.79104030  0.30838028  0.69125877     0.38900
C3270       C  0.82793373  0.34050809  0.74747897    -0.04600
C3271       C  0.82423255  0.34161904  0.76245278     0.02600
C3272       C  0.81680391  0.35671022  0.76773376    -0.04200
C3273       C  0.81321378  0.37054418  0.75761705    -0.00400
C3274       C  0.81556199  0.36823282  0.74263753    -0.03000
C3275       C  0.83650573  0.32587125  0.74224596     0.36300
C3276       C  0.80777452  0.38788181  0.76232672     0.39900
C3277       C  0.82726704  0.32635815  0.77217044     0.39000
C3278       C  0.80949391  0.38073465  0.73242383     0.35900
C3279       C  0.78882208  0.31069248  0.72229514     0.36600
C3280       C  0.86201131  0.38808435  0.68992528     0.39900
N3281       N  0.82980443  0.31400692  0.77970385    -0.38200
N3282       N  0.84336271  0.31422172  0.73806265    -0.39800
N3283       N  0.80338264  0.40192995  0.76547566    -0.37500
N3284       N  0.80433603  0.39063128  0.72444833    -0.39900
N3285       N  0.87903142  0.40500005  0.72697366    -0.39700
N3286       N  0.87727006  0.40313724  0.68324179    -0.37300
N3287       N  0.77852210  0.29102085  0.68506892    -0.38400
N3288       N  0.77403213  0.29489331  0.72879509    -0.40000
loop_ 
_geom_bond_atom_site_label_1 
_geom_bond_atom_site_label_2 
_geom_bond_distance 
_geom_bond_site_symmetry_2 
_ccdc_geom_bond_type 
C1            C2   1.521       .  S
C1            C7   1.553       .  S
C1            C5   1.548       .  S
C1         C3181   1.545       .  S
C2            H9   1.086       .  S
C2            C3   1.358       .  D
C3            C4   1.555       .  S
C3         C3265   1.486       .  S
C4            C8   1.534       .  S
C4            C6   1.547       .  S
C4           H10   1.105       .  S
C5           H11   1.081       .  S
C5            C6   1.372       .  D
C6         C3237   1.522       .  S
C7           H12   1.084       .  S
C7            C8   1.365       .  D
C8         C3209   1.504       .  S
C13          C14   1.545       .  S
C13          C19   1.537       .  S
C13          C17   1.541       .  S
C13        C3097   1.553       .  S
C14          H21   1.083       .  S
C14          C15   1.372       .  D
C15          C16   1.545       .  S
C15        C3125   1.505       .  S
C16          C20   1.544       .  S
C16          C18   1.536       .  S
C16          H22   1.107       .  S
C17          H23   1.086       .  S
C17          C18   1.356       .  D
C18        C3160   1.482       .  S
C19          H24   1.085       .  S
C19          C20   1.371       .  D
C20        C3272   1.508       .  S
C25          C26   1.536       .  S
C25          C31   1.540       .  S
C25          C29   1.556       .  S
C25        C3020   1.556       .  S
C26          H33   1.086       .  S
C26          C27   1.366       .  D
C27          C28   1.538       .  S
C27        C3069   1.494       .  S
C28          C32   1.537       .  S
C28          C30   1.546       .  S
C28          H34   1.105       .  S
C29          H35   1.084       .  S
C29          C30   1.381       .  D
C30        C3216   1.525       .  S
C31          H36   1.086       .  S
C31          C32   1.358       .  D
C32        C3048   1.488       .  S
C37          C38   1.542       .  S
C37          C43   1.539       .  S
C37          C41   1.549       .  S
C37        C2964   1.551       .  S
C38          H45   1.085       .  S
C38          C39   1.357       .  D
C39          C40   1.541       .  S
C39        C2985   1.487       .  S
C40          C44   1.550       .  S
C40          C42   1.539       .  S
C40          H46   1.107       .  S
C41          H47   1.080       .  S
C41          C42   1.363       .  D
C42        C3132   1.501       .  S
C43          H48   1.085       .  S
C43          C44   1.377       .  D
C44        C3076   1.519       .  S
C49          C50   1.556       .  S
C49          C55   1.540       .  S
C49          C53   1.547       .  S
C49        C2901   1.565       .  S
C50          H57   1.076       .  S
C50          C51   1.376       .  D
C51          C52   1.543       .  S
C51        C2936   1.509       .  S
C52          C56   1.531       .  S
C52          C54   1.546       .  S
C52          H58   1.106       .  S
C53          H59   1.081       .  S
C53          C54   1.373       .  D
C54        C3041   1.523       .  S
C55          H60   1.087       .  S
C55          C56   1.351       .  D
C56        C3244   1.484       .  S
C61          C62   1.531       .  S
C61          C67   1.558       .  S
C61          C65   1.540       .  S
C61        C2873   1.566       .  S
C62          H69   1.080       .  S
C62          C63   1.365       .  D
C63          C64   1.557       .  S
C63        C3153   1.520       .  S
C64          C68   1.537       .  S
C64          C66   1.538       .  S
C64          H70   1.101       .  S
C65          H71   1.085       .  S
C65          C66   1.361       .  D
C66        C2992   1.514       .  S
C67          H72   1.075       .  S
C67          C68   1.376       .  D
C68        C2929   1.501       .  S
In73         O75   2.227       .  S
In73         O76   2.255       .  S
In73         O84   2.259       .  S
In73         O78   2.237       .  S
In73         O80   2.241       .  S
In73         O81   2.254       .  S
In73         O82   2.234       .  S
In73         O85   2.225       .  S
C74          O80   1.263       .  A
C74          O82   1.260       .  A
C74        C2824   1.489       .  S
O75          C83   1.258       .  A
O76          C83   1.263       .  A
C77          O84   1.262       .  A
C77          O78   1.260       .  A
C77        C2908   1.487       .  S
C79          O81   1.264       .  A
C79          O85   1.260       .  A
C79        C2845   1.492       .  S
C83        C2796   1.486       .  S
In86         O88   2.228       .  S
In86         O89   2.249       .  S
In86         O97   2.262       .  S
In86         O91   2.236       .  S
In86         O93   2.241       .  S
In86         O94   2.255       .  S
In86         O95   2.248       .  S
In86         O98   2.228       .  S
C87          O93   1.260       .  A
C87          O95   1.261       .  A
C87        C2761   1.494       .  S
O88          C96   1.259       .  A
O89          C96   1.261       .  A
C90          O97   1.260       .  A
C90          O91   1.258       .  A
C90        C2733   1.493       .  S
C92          O94   1.261       .  A
C92          O98   1.259       .  A
C92        C2852   1.490       .  S
C96        C2712   1.480       .  S
In99        O101   2.246       .  S
In99        O102   2.250       .  S
In99        O110   2.257       .  S
In99        O104   2.223       .  S
In99        O106   2.231       .  S
In99        O107   2.249       .  S
In99        O108   2.237       .  S
In99        O111   2.241       .  S
C100        O106   1.261       .  A
C100        O108   1.263       .  A
C100       C2817   1.483       .  S
O101        C109   1.260       .  A
O102        C109   1.260       .  A
C103        O110   1.260       .  A
C103        O104   1.257       .  A
C103       C2649   1.483       .  S
C105        O107   1.260       .  A
C105        O111   1.257       .  A
C105       C2677   1.491       .  S
C109       C2621   1.495       .  S
In112       O114   2.233       .  S
In112       O115   2.265       .  S
In112       O123   2.250       .  S
In112       O117   2.225       .  S
In112       O119   2.229       .  S
In112       O120   2.252       .  S
In112       O121   2.238       .  S
In112       O124   2.231       .  S
C113        O119   1.259       .  A
C113        O121   1.260       .  A
C113       C2593   1.482       .  S
O114        C122   1.258       .  A
O115        C122   1.263       .  A
C116        O123   1.263       .  A
C116        O117   1.258       .  A
C116       C3188   1.481       .  S
C118        O120   1.262       .  A
C118        O124   1.258       .  A
C118       C2684   1.484       .  S
C122       C2565   1.499       .  S
In125       O127   2.248       .  S
In125       O128   2.235       .  S
In125       O136   2.245       .  S
In125       O130   2.277       .  S
In125       O132   2.262       .  S
In125       O133   2.240       .  S
In125       O134   2.248       .  S
In125       O137   2.258       .  S
C126        O132   1.262       .  A
C126        O134   1.258       .  A
C126       C2481   1.493       .  S
O127        C135   1.262       .  A
O128        C135   1.261       .  A
C129        O136   1.258       .  A
C129        O130   1.263       .  A
C129       C2537   1.493       .  S
C131        O133   1.259       .  A
C131        O137   1.263       .  A
C131       C2509   1.497       .  S
C135       C2600   1.486       .  S
In138       O140   2.241       .  S
In138       O141   2.268       .  S
In138       O149   2.273       .  S
In138       O143   2.240       .  S
In138       O145   2.245       .  S
In138       O146   2.272       .  S
In138       O147   2.256       .  S
In138       O150   2.250       .  S
C139        O145   1.261       .  A
C139        O147   1.261       .  A
C139       C2768   1.493       .  S
O140        C148   1.259       .  A
O141        C148   1.263       .  A
C142        O149   1.262       .  A
C142        O143   1.259       .  A
C142       C3013   1.498       .  S
C144        O146   1.262       .  A
C144        O150   1.259       .  A
C144       C2544   1.499       .  S
C148       C2460   1.496       .  S
In151       O153   2.232       .  S
In151       O154   2.269       .  S
In151       O162   2.264       .  S
In151       O156   2.238       .  S
In151       O158   2.256       .  S
In151       O159   2.245       .  S
In151       O160   2.256       .  S
In151       O163   2.241       .  S
C152        O158   1.260       .  A
C152        O160   1.259       .  A
C152       C2404   1.502       .  S
O153        C161   1.257       .  A
O154        C161   1.260       .  A
C155        O162   1.262       .  A
C155        O156   1.260       .  A
C155       C2369   1.497       .  S
C157        O159   1.262       .  A
C157        O163   1.262       .  A
C157       C2572   1.488       .  S
C161       C2425   1.488       .  S
In164       O166   2.242       .  S
In164       O167   2.232       .  S
In164       O175   2.234       .  S
In164       O169   2.252       .  S
In164       O171   2.249       .  S
In164       O172   2.238       .  S
In164       O173   2.241       .  S
In164       O176   2.254       .  S
C165        O171   1.260       .  A
C165        O173   1.258       .  A
C165       C2432   1.487       .  S
O166        C174   1.260       .  A
O167        C174   1.261       .  A
C168        O175   1.260       .  A
C168        O169   1.261       .  A
C168       C2705   1.488       .  S
C170        O172   1.259       .  A
C170        O176   1.261       .  A
C170       C2320   1.489       .  S
C174       C2341   1.490       .  S
In177       O179   2.251       .  S
In177       O180   2.244       .  S
In177       O188   2.247       .  S
In177       O182   2.255       .  S
In177       O184   2.249       .  S
In177       O185   2.242       .  S
In177       O186   2.255       .  S
In177       O189   2.260       .  S
C178        O184   1.259       .  A
C178        O186   1.260       .  A
C178       C2285   1.491       .  S
O179        C187   1.260       .  A
O180        C187   1.259       .  A
C181        O188   1.260       .  A
C181        O182   1.260       .  A
C181       C2488   1.497       .  S
C183        O185   1.258       .  A
C183        O189   1.262       .  A
C183       C2264   1.496       .  S
C187       C2397   1.486       .  S
In190       O192   2.232       .  S
In190       O193   2.258       .  S
In190       O201   2.263       .  S
In190       O195   2.230       .  S
In190       O197   2.235       .  S
In190       O198   2.243       .  S
In190       O199   2.255       .  S
In190       O202   2.237       .  S
C191        O197   1.259       .  A
C191        O199   1.262       .  A
C191       C2229   1.486       .  S
O192        C200   1.258       .  A
O193        C200   1.261       .  A
C194        O201   1.261       .  A
C194        O195   1.258       .  A
C194       C2208   1.486       .  S
C196        O198   1.261       .  A
C196        O202   1.260       .  A
C196       C2789   1.486       .  S
C200       C2292   1.492       .  S
In203       O205   2.246       .  S
In203       O206   2.263       .  S
In203       O214   2.256       .  S
In203       O208   2.236       .  S
In203       O210   2.237       .  S
In203       O211   2.259       .  S
In203       O212   2.240       .  S
In203       O215   2.239       .  S
C204        O210   1.261       .  A
C204        O212   1.260       .  A
C204       C2348   1.480       .  S
O205        C213   1.259       .  A
O206        C213   1.263       .  A
C207        O214   1.262       .  A
C207        O208   1.260       .  A
C207       C2152   1.487       .  S
C209        O211   1.263       .  A
C209        O215   1.259       .  A
C209       C2453   1.491       .  S
C213       C2180   1.500       .  S
In216       O218   2.249       .  S
In216       O219   2.276       .  S
In216       O227   2.278       .  S
In216       O221   2.235       .  S
In216       O223   2.251       .  S
In216       O224   2.265       .  S
In216       O225   2.244       .  S
In216       O228   2.247       .  S
C217        O223   1.261       .  A
C217        O225   1.261       .  A
C217       C2236   1.489       .  S
O218        C226   1.258       .  A
O219        C226   1.262       .  A
C220        O227   1.264       .  A
C220        O221   1.260       .  A
C220       C2124   1.498       .  S
C222        O224   1.261       .  A
C222        O228   1.258       .  A
C222       C2628   1.492       .  S
C226       C2173   1.498       .  S
C229        C230   1.554       .  S
C229        C235   1.545       .  S
C229        C233   1.536       .  S
C229       C2005   1.564       .  S
C230        H237   1.077       .  S
C230        C231   1.372       .  D
C231        C232   1.537       .  S
C231       C2096   1.514       .  S
C232        C236   1.542       .  S
C232        C234   1.545       .  S
C232        H238   1.085       .  S
C233        H239   1.086       .  S
C233        C234   1.356       .  D
C234       C2068   1.485       .  S
C235        H240   1.082       .  S
C235        C236   1.378       .  D
C236       C2033   1.537       .  S
C241        C242   1.559       .  S
C241        C247   1.523       .  S
C241        C245   1.546       .  S
C241       C2201   1.555       .  S
C242        H249   1.077       .  S
C242        C243   1.383       .  D
C243        C244   1.546       .  S
C243       C1949   1.537       .  S
C244        C248   1.552       .  S
C244        C246   1.533       .  S
C244        H250   1.099       .  S
C245        H251   1.084       .  S
C245        C246   1.362       .  D
C246       C1977   1.503       .  S
C247        H252   1.086       .  S
C247        C248   1.358       .  D
C248       C2089   1.488       .  S
C253        C254   1.534       .  S
C253        C259   1.549       .  S
C253        C257   1.544       .  S
C253       C1872   1.552       .  S
C254        H261   1.085       .  S
C254        C255   1.374       .  D
C255        C256   1.551       .  S
C255       C1921   1.516       .  S
C256        C260   1.542       .  S
C256        C258   1.538       .  S
C256        H262   1.106       .  S
C257        H263   1.085       .  S
C257        C258   1.357       .  D
C258       C2040   1.485       .  S
C259        H264   1.079       .  S
C259        C260   1.367       .  D
C260       C1893   1.512       .  S
C265        C266   1.546       .  S
C265        C271   1.553       .  S
C265        C269   1.536       .  S
C265       C2145   1.565       .  S
C266        H273   1.080       .  S
C266        C267   1.375       .  D
C267        C268   1.546       .  S
C267       C1844   1.518       .  S
C268        C272   1.534       .  S
C268        C270   1.545       .  S
C268        H274   1.103       .  S
C269        H275   1.086       .  S
C269        C270   1.363       .  D
C270       C1956   1.500       .  S
C271        H276   1.082       .  S
C271        C272   1.365       .  D
C272       C1928   1.498       .  S
C277        C278   1.539       .  S
C277        C283   1.563       .  S
C277        C281   1.531       .  S
C277       C2376   1.562       .  S
C278        H285   1.085       .  S
C278        C279   1.357       .  D
C279        C280   1.545       .  S
C279       C1984   1.506       .  S
C280        C284   1.547       .  S
C280        C282   1.545       .  S
C280        H286   1.110       .  S
C281        H287   1.086       .  S
C281        C282   1.360       .  D
C282       C1837   1.498       .  S
C283        H288   1.082       .  S
C283        C284   1.384       .  D
C284       C1809   1.516       .  S
C289        C290   1.556       .  S
C289        C295   1.537       .  S
C289        C293   1.543       .  S
C289       C1788   1.566       .  S
C290        H297   1.079       .  S
C290        C291   1.380       .  D
C291        C292   1.550       .  S
C291       C1816   1.513       .  S
C292        C296   1.546       .  S
C292        C294   1.537       .  S
C292        H298   1.108       .  S
C293        H299   1.086       .  S
C293        C294   1.356       .  D
C294       C1900   1.494       .  S
C295        H300   1.083       .  S
C295        C296   1.365       .  D
C296       C2061   1.514       .  S
C301        C302   1.559       .  S
C301        C307   1.539       .  S
C301        C305   1.538       .  S
C301       C2740   1.561       .  S
C302        H309   1.079       .  S
C302        C303   1.380       .  D
C303        C304   1.546       .  S
C303       C1753   1.511       .  S
C304        C308   1.547       .  S
C304        C306   1.538       .  S
C304        H310   1.110       .  S
C305        H311   1.087       .  S
C305        C306   1.353       .  D
C306       C1725   1.491       .  S
C307        H312   1.083       .  S
C307        C308   1.365       .  D
C308       C1697   1.512       .  S
C313        C314   1.540       .  S
C313        C319   1.555       .  S
C313        C317   1.538       .  S
C313       C1620   1.560       .  S
C314        H321   1.087       .  S
C314        C315   1.353       .  D
C315        C316   1.538       .  S
C315       C1641   1.487       .  S
C316        C320   1.548       .  S
C316        C318   1.541       .  S
C316        H322   1.106       .  S
C317        H323   1.084       .  S
C317        C318   1.363       .  D
C318       C1669   1.507       .  S
C319        H324   1.079       .  S
C319        C320   1.381       .  D
C320       C1760   1.516       .  S
C325        C326   1.524       .  S
C325        C331   1.538       .  S
C325        C329   1.558       .  S
C325       C2656   1.539       .  S
C326        H333   1.086       .  S
C326        C327   1.355       .  D
C327        C328   1.536       .  S
C327       C1585   1.488       .  S
C328        C332   1.543       .  S
C328        C330   1.549       .  S
C328        H334   1.100       .  S
C329        H335   1.082       .  S
C329        C330   1.383       .  D
C330       C1557   1.533       .  S
C331        H336   1.085       .  S
C331        C332   1.359       .  D
C332       C1732   1.495       .  S
C337        C338   1.551       .  S
C337        C343   1.537       .  S
C337        C341   1.541       .  S
C337       C1501   1.556       .  S
C338        H345   1.084       .  S
C338        C339   1.365       .  D
C339        C340   1.534       .  S
C339       C1676   1.497       .  S
C340        C344   1.542       .  S
C340        C342   1.544       .  S
C340        H346   1.108       .  S
C341        H347   1.082       .  S
C341        C342   1.362       .  D
C342       C1529   1.505       .  S
C343        H348   1.086       .  S
C343        C344   1.374       .  D
C344       C1592   1.501       .  S
C349        C350   1.532       .  S
C349        C355   1.540       .  S
C349        C353   1.555       .  S
C349       C2516   1.556       .  S
C350        H357   1.086       .  S
C350        C351   1.360       .  D
C351        C352   1.548       .  S
C351       C1480   1.491       .  S
C352        C356   1.548       .  S
C352        C354   1.544       .  S
C352        H358   1.105       .  S
C353        H359   1.078       .  S
C353        C354   1.374       .  D
C354       C1704   1.518       .  S
C355        H360   1.087       .  S
C355        C356   1.366       .  D
C356       C1564   1.506       .  S
C361        C362   1.541       .  S
C361        C367   1.552       .  S
C361        C365   1.542       .  S
C361       C1445   1.561       .  S
C362        H369   1.085       .  S
C362        C363   1.358       .  D
C363        C364   1.537       .  S
C363       C1536   1.485       .  S
C364        C368   1.533       .  S
C364        C366   1.540       .  S
C364        H370   1.101       .  S
C365        H371   1.085       .  S
C365        C366   1.377       .  D
C366       C1648   1.520       .  S
C367        H372   1.081       .  S
C367        C368   1.370       .  D
C368       C1473   1.503       .  S
In373       O375   2.244       .  S
In373       O376   2.265       .  S
In373       O384   2.256       .  S
In373       O378   2.236       .  S
In373       O380   2.237       .  S
In373       O381   2.276       .  S
In373       O382   2.231       .  S
In373       O385   2.253       .  S
C374        O380   1.260       .  A
C374        O382   1.261       .  A
C374       C1424   1.493       .  S
O375        C383   1.260       .  A
O376        C383   1.264       .  A
C377        O384   1.262       .  A
C377        O378   1.258       .  A
C377       C1361   1.489       .  S
C379        O381   1.262       .  A
C379        O385   1.258       .  A
C379       C1389   1.500       .  S
C383       C1340   1.495       .  S
In386       O388   2.240       .  S
In386       O389   2.280       .  S
In386       O397   2.267       .  S
In386       O391   2.232       .  S
In386       O393   2.237       .  S
In386       O394   2.280       .  S
In386       O395   2.241       .  S
In386       O398   2.247       .  S
C387        O393   1.261       .  A
C387        O395   1.263       .  A
C387       C1305   1.494       .  S
O388        C396   1.258       .  A
O389        C396   1.264       .  A
C390        O397   1.263       .  A
C390        O391   1.258       .  A
C390       C1865   1.495       .  S
C392        O394   1.264       .  A
C392        O398   1.259       .  A
C392       C1396   1.505       .  S
C396       C1284   1.493       .  S
In399       O401   2.251       .  S
In399       O402   2.246       .  S
In399       O410   2.251       .  S
In399       O404   2.232       .  S
In399       O406   2.243       .  S
In399       O407   2.258       .  S
In399       O408   2.242       .  S
In399       O411   2.238       .  S
C400        O406   1.261       .  A
C400        O408   1.261       .  A
C400       C1221   1.484   1_554  S
O401        C409   1.262       .  A
O402        C409   1.259       .  A
C403        O410   1.260       .  A
C403        O404   1.260       .  A
C403       C1193   1.484       .  S
C405        O407   1.261       .  A
C405        O411   1.259       .  A
C405       C1249   1.493   1_554  S
C409       C1165   1.491       .  S
In412       O414   2.247       .  S
In412       O415   2.234       .  S
In412       O423   2.246       .  S
In412       O417   2.253       .  S
In412       O419   2.245       .  S
In412       O420   2.230       .  S
In412       O421   2.241       .  S
In412       O424   2.257       .  S
C413        O419   1.261       .  A
C413        O421   1.260       .  A
C413       C1137   1.486       .  S
O414        C422   1.260       .  A
O415        C422   1.260       .  A
C416        O423   1.259       .  A
C416        O417   1.260       .  A
C416       C1256   1.489       .  S
C418        O420   1.259       .  A
C418        O424   1.262       .  A
C418       C2012   1.490       .  S
C422       C1417   1.481       .  S
In425       O427   2.239       .  S
In425       O428   2.262       .  S
In425       O436   2.277       .  S
In425       O430   2.225       .  S
In425       O432   2.233       .  S
In425       O433   2.258       .  S
In425       O434   2.259       .  S
In425       O437   2.236       .  S
C426        O432   1.258       .  A
C426        O434   1.260       .  A
C426       C1228   1.490       .  S
O427        C435   1.259       .  A
O428        C435   1.261       .  A
C429        O436   1.264       .  A
C429        O430   1.258       .  A
C429       C1781   1.491       .  S
C431        O433   1.261       .  A
C431        O437   1.258       .  A
C431       C1116   1.486       .  S
C435       C1088   1.489       .  S
In438       O440   2.242       .  S
In438       O441   2.259       .  S
In438       O449   2.270       .  S
In438       O443   2.230       .  S
In438       O445   2.232       .  S
In438       O446   2.263       .  S
In438       O447   2.255       .  S
In438       O450   2.241       .  S
C439        O445   1.259       .  A
C439        O447   1.262       .  A
C439       C1312   1.489       .  S
O440        C448   1.258       .  A
O441        C448   1.260       .  A
C442        O449   1.263       .  A
C442        O443   1.258       .  A
C442       C1053   1.491       .  S
C444        O446   1.261       .  A
C444        O450   1.258       .  A
C444       C1109   1.494       .  S
C448       C1025   1.491       .  S
In451       O453   2.231       .  S
In451       O454   2.259       .  S
In451       O462   2.264       .  S
In451       O456   2.234       .  S
In451       O458   2.259       .  S
In451       O459   2.267       .  S
In451       O460   2.247       .  S
In451       O463   2.237       .  S
C452        O458   1.261       .  A
C452        O460   1.261       .  A
C452        C969   1.495       .  S
O453        C461   1.261       .  A
O454        C461   1.263       .  A
C455        O462   1.261       .  A
C455        O456   1.261       .  A
C455       C1452   1.486       .  S
C457        O459   1.262       .  A
C457        O463   1.258       .  A
C457       C1172   1.493       .  S
C461       C1004   1.493       .  S
In464       O466   2.250       .  S
In464       O467   2.241       .  S
In464       O475   2.247       .  S
In464       O469   2.257       .  S
In464       O471   2.254       .  S
In464       O472   2.244       .  S
In464       O473   2.239       .  S
In464       O476   2.265       .  S
C465        O471   1.261       .  A
C465        O473   1.258       .  A
C465        C997   1.486       .  S
O466        C474   1.260       .  A
O467        C474   1.260       .  A
C468        O475   1.261       .  A
C468        O469   1.261       .  A
C468       C1277   1.492       .  S
C470        O472   1.259       .  A
C470        O476   1.262       .  A
C470       C2957   1.492       .  S
C474        C941   1.491       .  S
In477       O479   2.260       .  S
In477       O480   2.268       .  S
In477       O488   2.274       .  S
In477       O482   2.247       .  S
In477       O484   2.246       .  S
In477       O485   2.257       .  S
In477       O486   2.252       .  S
In477       O489   2.248       .  S
C478        O484   1.260       .  A
C478        O486   1.262       .  A
C478        C892   1.487       .  S
O479        C487   1.258       .  A
O480        C487   1.259       .  A
C481        O488   1.260       .  A
C481        O482   1.257       .  A
C481       C1508   1.492       .  S
C483        O485   1.262       .  A
C483        O489   1.261       .  A
C483       C1333   1.498       .  S
C487        C913   1.500       .  S
In490       O492   2.256       .  S
In490       O493   2.240       .  S
In490       O501   2.242       .  S
In490       O495   2.258       .  S
In490       O497   2.258       .  S
In490       O498   2.234       .  S
In490       O499   2.258       .  S
In490       O502   2.273       .  S
C491        O497   1.260       .  A
C491        O499   1.260       .  A
C491        C920   1.499       .  S
O492        C500   1.260       .  A
O493        C500   1.259       .  A
C494        O501   1.259       .  A
C494        O495   1.261       .  A
C494       C1081   1.500       .  S
C496        O498   1.257       .  A
C496        O502   1.262       .  A
C496       C3104   1.491       .  S
C500        C976   1.492       .  S
In503       O505   2.264       .  S
In503       O506   2.236       .  S
In503       O514   2.240       .  S
In503       O508   2.249       .  S
In503       O510   2.269       .  S
In503       O511   2.240       .  S
In503       O512   2.224       .  S
In503       O515   2.248       .  S
C504        O510   1.262       .  A
C504        O512   1.257       .  A
C504       C1144   1.482       .  S
O505        C513   1.259       .  A
O506        C513   1.257       .  A
C507        O514   1.261       .  A
C507        O508   1.262       .  A
C507        C857   1.494       .  S
C509        O511   1.262       .  A
C509        O515   1.262       .  A
C509        C885   1.490       .  S
C513       C2880   1.484       .  S
In516       O518   2.243       .  S
In516       O519   2.256       .  S
In516       O527   2.275       .  S
In516       O521   2.229       .  S
In516       O523   2.259       .  S
In516       O524   2.256       .  S
In516       O525   2.245       .  S
In516       O528   2.232       .  S
C517        O523   1.259       .  A
C517        O525   1.259       .  A
C517        C948   1.486       .  S
O518        C526   1.260       .  A
O519        C526   1.260       .  A
C520        O527   1.262       .  A
C520        O521   1.258       .  A
C520       C1613   1.494       .  S
C522        O524   1.262       .  A
C522        O528   1.260       .  A
C522       C1032   1.484       .  S
C526        C864   1.493       .  S
C529        C530   1.562       .  S
C529        C535   1.534       .  S
C529        C533   1.541       .  S
C529       C1060   1.568       .  S
C530        H537   1.076       .  S
C530        C531   1.376       .  D
C531        C532   1.537       .  S
C531        C836   1.513       .  S
C532        C536   1.540       .  S
C532        C534   1.546       .  S
C532        H538   1.104       .  S
C533        H539   1.085       .  S
C533        C534   1.370       .  D
C534        C808   1.511       .  S
C535        H540   1.087       .  S
C535        C536   1.356       .  D
C536        C780   1.490       .  S
C541        C542   1.550       .  S
C541        C547   1.526       .  S
C541        C545   1.551       .  S
C541       C2313   1.553       .  S
C542        H549   1.081       .  S
C542        C543   1.375       .  D
C543        C544   1.548       .  S
C543        C717   1.530       .  S
C544        C548   1.554       .  S
C544        C546   1.532       .  S
C544        H550   1.101       .  S
C545        H551   1.081       .  S
C545        C546   1.363       .  D
C546        C752   1.502       .  S
C547        H552   1.086       .  S
C547        C548   1.361       .  D
C548        C829   1.492       .  S
C553        C554   1.555       .  S
C553        C559   1.538       .  S
C553        C557   1.542       .  S
C553       C1200   1.558       .  S
C554        H561   1.078       .  S
C554        C555   1.377       .  D
C555        C556   1.545       .  S
C555        C689   1.508       .  S
C556        C560   1.541       .  S
C556        C558   1.540       .  S
C556        H562   1.110       .  S
C557        H563   1.086       .  S
C557        C558   1.357       .  D
C558        C668   1.493       .  S
C559        H564   1.085       .  S
C559        C560   1.359       .  D
C560        C801   1.501       .  S
C565        C566   1.552       .  S
C565        C571   1.535       .  S
C565        C569   1.540       .  S
C565       C2257   1.549       .  S
C566        H573   1.085       .  S
C566        C567   1.378       .  D
C567        C568   1.545       .  S
C567        C745   1.521       .  S
C568        C572   1.539       .  S
C568        C570   1.538       .  S
C568        H574   1.105       .  S
C569        H575   1.084       .  S
C569        C570   1.356       .  D
C570        C633   1.485       .  S
C571        H576   1.086       .  S
C571        C572   1.366       .  D
C572        C696   1.496       .  S
C577        C578   1.524       .  S
C577        C583   1.547       .  S
C577        C581   1.553       .  S
C577       C1368   1.551       .  S
C578        H585   1.086       .  S
C578        C579   1.361       .  D
C579        C580   1.553       .  S
C579        C605   1.489       .  S
C580        C584   1.538       .  S
C580        C582   1.541       .  S
C580        H586   1.103       .  S
C581        H587   1.079       .  S
C581        C582   1.371       .  D
C582        C773   1.514       .  S
C583        H588   1.084       .  S
C583        C584   1.367       .  D
C584        C661   1.513       .  S
C589        C590   1.550       .  S
C589        C595   1.540       .  S
C589        C593   1.545       .  S
C589       C2117   1.557       .  S
C590        H597   1.099       .  S
C590        C591   1.365       .  D
C591        C592   1.539       .  S
C591        C640   1.510       .  S
C592        C596   1.548       .  S
C592        C594   1.532       .  S
C592        H598   1.103       .  S
C593        H599   1.087       .  S
C593        C594   1.358       .  D
C594        C724   1.488       .  S
C595        H600   1.086       .  S
C595        C596   1.376       .  D
C596        C612   1.518       .  S
C601        C602   1.414       .  A
C601        C606   1.413       .  A
C601        C619   1.449       .  S
C602        C607   1.505       .  S
C602        C603   1.414       .  A
C603        C604   1.412       .  A
C603        C608   1.450       .  S
C604        C605   1.409       .  A
C604        C620   1.450       .  S
C605        C606   1.411       .  A
C606        C609   1.451       .  S
C607        C610   1.408       .  A
C607        C614   1.408       .  A
C608        N625   1.157       .  T
C609        N627   1.157       .  T
C610        C611   1.416       .  A
C610        C615   1.451       .  S
C611        C612   1.426       .  A
C611        C617   1.451       .  S
C612        C613   1.424       .  A
C613        C614   1.414       .  A
C613        C616   1.447       .  S
C614        C618   1.453       .  S
C615        N622   1.157       .  T
C616        N623   1.157       .  T
C617        N621   1.158       .  T
C618        N624   1.157       .  T
C619        N628   1.157       .  T
C620        N626   1.157       .  T
C629        C630   1.418       .  A
C629        C634   1.412       .  A
C629        C647   1.451       .  S
C630        C635   1.504       .  S
C630        C631   1.415       .  A
C631        C632   1.406       .  A
C631        C636   1.451       .  S
C632        C633   1.413       .  A
C632        C648   1.453       .  S
C633        C634   1.408       .  A
C634        C637   1.450       .  S
C635        C638   1.415       .  A
C635        C642   1.410       .  A
C636        N653   1.157       .  T
C637        N655   1.157       .  T
C638        C639   1.415       .  A
C638        C643   1.453       .  S
C639        C640   1.425       .  A
C639        C645   1.450       .  S
C640        C641   1.414       .  A
C641        C642   1.405       .  A
C641        C644   1.450       .  S
C642        C646   1.451       .  S
C643        N650   1.157       .  T
C644        N651   1.157       .  T
C645        N649   1.158       .  T
C646        N652   1.157       .  T
C647        N656   1.157       .  T
C648        N654   1.157       .  T
C657        C658   1.406       .  A
C657        C662   1.414       .  A
C657        C675   1.452       .  S
C658        C663   1.494       .  S
C658        C659   1.405       .  A
C659        C660   1.409       .  A
C659        C664   1.452       .  S
C660        C661   1.426       .  A
C660        C676   1.451       .  S
C661        C662   1.424       .  A
C662        C665   1.447       .  S
C663        C666   1.410       .  A
C663        C670   1.406       .  A
C664        N681   1.157       .  T
C665        N683   1.157       .  T
C666        C667   1.413       .  A
C666        C671   1.450       .  S
C667        C668   1.417       .  A
C667        C673   1.450       .  S
C668        C669   1.410       .  A
C669        C670   1.405       .  A
C669        C672   1.443       .  S
C670        C674   1.450       .  S
C671        N678   1.157       .  T
C672        N679   1.155       .  T
C673        N677   1.157       .  T
C674        N680   1.156       .  T
C675        N684   1.157       .  T
C676        N682   1.157       .  T
C685        C686   1.408       .  A
C685        C690   1.413       .  A
C685        C703   1.453       .  S
C686        C691   1.501       .  S
C686        C687   1.408       .  A
C687        C688   1.416       .  A
C687        C692   1.450       .  S
C688        C689   1.422       .  A
C688        C704   1.450       .  S
C689        C690   1.419       .  A
C690        C693   1.447       .  S
C691        C694   1.411       .  A
C691        C698   1.411       .  A
C692        N709   1.157       .  T
C693        N711   1.156       .  T
C694        C695   1.415       .  A
C694        C699   1.449       .  S
C695        C696   1.416       .  A
C695        C701   1.450       .  S
C696        C697   1.413       .  A
C697        C698   1.409       .  A
C697        C700   1.450       .  S
C698        C702   1.450       .  S
C699        N706   1.157       .  T
C700        N707   1.157       .  T
C701        N705   1.157       .  T
C702        N708   1.157       .  T
C703        N712   1.157       .  T
C704        N710   1.157       .  T
C713        C714   1.403       .  A
C713        C718   1.412       .  A
C713        C731   1.454       .  S
C714        C719   1.501       .  S
C714        C715   1.405       .  A
C715        C716   1.416       .  A
C715        C720   1.454       .  S
C716        C717   1.431       .  A
C716        C732   1.447       .  S
C717        C718   1.434       .  A
C718        C721   1.451       .  S
C719        C722   1.413       .  A
C719        C726   1.413       .  A
C720        N737   1.157       .  T
C721        N739   1.158       .  T
C722        C723   1.413       .  A
C722        C727   1.449       .  S
C723        C724   1.411       .  A
C723        C729   1.450       .  S
C724        C725   1.409       .  A
C725        C726   1.409       .  A
C725        C728   1.446       .  S
C726        C730   1.452       .  S
C727        N734   1.157       .  T
C728        N735   1.156       .  T
C729        N733   1.157       .  T
C730        N736   1.157       .  T
C731        N740   1.157       .  T
C732        N738   1.158       .  T
C741        C742   1.403       .  A
C741        C746   1.413       .  A
C741        C759   1.451       .  S
C742        C747   1.495       .  S
C742        C743   1.405       .  A
C743        C744   1.412       .  A
C743        C748   1.455       .  S
C744        C745   1.430       .  A
C744        C760   1.447       .  S
C745        C746   1.425       .  A
C746        C749   1.447       .  S
C747        C750   1.406       .  A
C747        C754   1.407       .  A
C748        N765   1.157       .  T
C749        N767   1.156       .  T
C750        C751   1.409       .  A
C750        C755   1.452       .  S
C751        C752   1.416       .  A
C751        C757   1.445       .  S
C752        C753   1.421       .  A
C753        C754   1.413       .  A
C753        C756   1.450       .  S
C754        C758   1.451       .  S
C755        N762   1.157       .  T
C756        N763   1.157       .  T
C757        N761   1.155       .  T
C758        N764   1.157       .  T
C759        N768   1.157       .  T
C760        N766   1.158       .  T
C769        C770   1.410       .  A
C769        C774   1.413       .  A
C769        C787   1.453       .  S
C770        C775   1.503       .  S
C770        C771   1.409       .  A
C771        C772   1.411       .  A
C771        C776   1.451       .  S
C772        C773   1.419       .  A
C772        C788   1.447       .  S
C773        C774   1.427       .  A
C774        C777   1.449       .  S
C775        C778   1.413       .  A
C775        C782   1.414       .  A
C776        N793   1.157       .  T
C777        N795   1.158       .  T
C778        C779   1.414       .  A
C778        C783   1.450       .  S
C779        C780   1.412       .  A
C779        C785   1.449       .  S
C780        C781   1.413       .  A
C781        C782   1.408       .  A
C781        C784   1.450       .  S
C782        C786   1.453       .  S
C783        N790   1.157       .  T
C784        N791   1.157       .  T
C785        N789   1.157       .  T
C786        N792   1.157       .  T
C787        N796   1.157       .  T
C788        N794   1.156       .  T
C797        C798   1.409       .  A
C797        C802   1.411       .  A
C797        C815   1.452       .  S
C798        C803   1.493       .  S
C798        C799   1.406       .  A
C799        C800   1.407       .  A
C799        C804   1.450       .  S
C800        C801   1.412       .  A
C800        C816   1.443       .  S
C801        C802   1.420       .  A
C802        C805   1.449       .  S
C803        C806   1.410       .  A
C803        C810   1.404       .  A
C804        N821   1.157       .  T
C805        N823   1.157       .  T
C806        C807   1.409       .  A
C806        C811   1.454       .  S
C807        C808   1.423       .  A
C807        C813   1.448       .  S
C808        C809   1.427       .  A
C809        C810   1.410       .  A
C809        C812   1.452       .  S
C810        C814   1.451       .  S
C811        N818   1.157       .  T
C812        N819   1.157       .  T
C813        N817   1.158       .  T
C814        N820   1.157       .  T
C815        N824   1.157       .  T
C816        N822   1.155       .  T
C825        C826   1.416       .  A
C825        C830   1.414       .  A
C825        C843   1.450       .  S
C826        C831   1.506       .  S
C826        C827   1.414       .  A
C827        C828   1.412       .  A
C827        C832   1.449       .  S
C828        C829   1.408       .  A
C828        C844   1.450       .  S
C829        C830   1.411       .  A
C830        C833   1.451       .  S
C831        C834   1.408       .  A
C831        C838   1.412       .  A
C832        N849   1.157       .  T
C833        N851   1.157       .  T
C834        C835   1.411       .  A
C834        C839   1.453       .  S
C835        C836   1.421       .  A
C835        C841   1.447       .  S
C836        C837   1.421       .  A
C837        C838   1.418       .  A
C837        C840   1.448       .  S
C838        C842   1.450       .  S
C839        N846   1.157       .  T
C840        N847   1.157       .  T
C841        N845   1.156       .  T
C842        N848   1.157       .  T
C843        N852   1.157       .  T
C844        N850   1.157       .  T
C853        C854   1.410       .  A
C853        C858   1.411       .  A
C853        C871   1.452       .  S
C854        C859   1.498       .  S
C854        C855   1.410       .  A
C855        C856   1.412       .  A
C855        C860   1.451       .  S
C856        C857   1.419       .  A
C856        C872   1.451       .  S
C857        C858   1.418       .  A
C858        C861   1.452       .  S
C859        C862   1.410       .  A
C859        C866   1.410   1_556  A
C860        N877   1.157   1_556  T
C861        N879   1.157       .  T
C862        C863   1.412       .  A
C862        C867   1.451       .  S
C863        C864   1.419   1_556  A
C863        C869   1.451       .  S
C864        C865   1.416       .  A
C865        C866   1.410       .  A
C865        C868   1.451       .  S
C866        C870   1.451       .  S
C867        N874   1.157       .  T
C868        N875   1.157       .  T
C869        N873   1.158       .  T
C870        N876   1.157       .  T
C871        N880   1.157       .  T
C872        N878   1.157       .  T
C881        C882   1.410       .  A
C881        C886   1.412       .  A
C881        C899   1.450   1_556  S
C882        C887   1.496       .  S
C882        C883   1.410       .  A
C883        C884   1.411       .  A
C883        C888   1.451       .  S
C884        C885   1.417       .  A
C884        C900   1.451       .  S
C885        C886   1.416       .  A
C886        C889   1.451       .  S
C887        C890   1.410       .  A
C887        C894   1.410       .  A
C888        N905   1.157       .  T
C889        N907   1.157       .  T
C890        C891   1.412   1_556  A
C890        C895   1.451       .  S
C891        C892   1.415       .  A
C891        C897   1.451       .  S
C892        C893   1.415       .  A
C893        C894   1.411   1_554  A
C893        C896   1.451       .  S
C894        C898   1.450       .  S
C895        N902   1.157       .  T
C896        N903   1.157       .  T
C897        N901   1.158       .  T
C898        N904   1.157       .  T
C899        N908   1.157       .  T
C900        N906   1.157       .  T
C909        C910   1.411       .  A
C909        C914   1.413   1_556  A
C909        C927   1.451       .  S
C910        C915   1.504       .  S
C910        C911   1.411       .  A
C911        C912   1.415       .  A
C911        C916   1.450       .  S
C912        C913   1.419   1_556  A
C912        C928   1.451       .  S
C913        C914   1.418       .  A
C914        C917   1.451       .  S
C915        C918   1.411       .  A
C915        C922   1.411       .  A
C916        N933   1.157       .  T
C917        N935   1.157       .  T
C918        C919   1.415       .  A
C918        C923   1.451       .  S
C919        C920   1.421       .  A
C919        C925   1.451       .  S
C920        C921   1.418       .  A
C921        C922   1.414       .  A
C921        C924   1.451       .  S
C922        C926   1.450       .  S
C923        N930   1.157   1_556  T
C924        N931   1.157       .  T
C925        N929   1.158       .  T
C926        N932   1.157       .  T
C927        N936   1.157       .  T
C928        N934   1.157       .  T
C937        C938   1.409       .  A
C937        C942   1.409       .  A
C937        C955   1.451       .  S
C938        C943   1.496       .  S
C938        C939   1.409       .  A
C939        C940   1.412       .  A
C939        C944   1.450   1_556  S
C940        C941   1.418       .  A
C940        C956   1.451       .  S
C941        C942   1.417       .  A
C942        C945   1.452       .  S
C943        C946   1.411   1_556  A
C943        C950   1.410   1_556  A
C944        N961   1.157       .  T
C945        N963   1.157       .  T
C946        C947   1.413       .  A
C946        C951   1.450   1_554  S
C947        C948   1.415       .  A
C947        C953   1.451       .  S
C948        C949   1.415       .  A
C949        C950   1.409       .  A
C949        C952   1.452       .  S
C950        C954   1.451   1_554  S
C951        N958   1.157       .  T
C952        N959   1.157       .  T
C953        N957   1.157       .  T
C954        N960   1.157       .  T
C955        N964   1.157       .  T
C956        N962   1.158   1_556  T
C965        C966   1.410       .  A
C965        C970   1.411       .  A
C965        C983   1.451       .  S
C966        C971   1.499       .  S
C966        C967   1.410       .  A
C967        C968   1.414   1_556  A
C967        C972   1.451       .  S
C968        C969   1.418       .  A
C968        C984   1.450       .  S
C969        C970   1.418   1_554  A
C970        C973   1.451       .  S
C971        C974   1.411       .  A
C971        C978   1.410       .  A
C972        N989   1.157       .  T
C973        N991   1.157       .  T
C974        C975   1.412       .  A
C974        C979   1.450       .  S
C975        C976   1.417       .  A
C975        C981   1.451       .  S
C976        C977   1.418       .  A
C977        C978   1.411       .  A
C977        C980   1.452       .  S
C978        C982   1.451       .  S
C979        N986   1.157   1_556  T
C980        N987   1.158       .  T
C981        N985   1.157       .  T
C982        N988   1.157       .  T
C983        N992   1.157       .  T
C984        N990   1.157       .  T
C993        C994   1.411       .  A
C993        C998   1.410       .  A
C993       C1011   1.451       .  S
C994        C999   1.497       .  S
C994        C995   1.411       .  A
C995        C996   1.412       .  A
C995       C1000   1.450   1_556  S
C996        C997   1.415       .  A
C996       C1012   1.451       .  S
C997        C998   1.415       .  A
C998       C1001   1.452       .  S
C999       C1002   1.411       .  A
C999       C1006   1.409   1_556  A
C1000      N1017   1.157       .  T
C1001      N1019   1.157       .  T
C1002      C1003   1.413       .  A
C1002      C1007   1.451       .  S
C1003      C1004   1.418   1_556  A
C1003      C1009   1.450       .  S
C1004      C1005   1.418       .  A
C1005      C1006   1.410       .  A
C1005      C1008   1.452       .  S
C1006      C1010   1.451       .  S
C1007      N1014   1.157       .  T
C1008      N1015   1.157       .  T
C1009      N1013   1.157       .  T
C1010      N1016   1.157       .  T
C1011      N1020   1.157       .  T
C1012      N1018   1.157       .  T
C1021      C1022   1.410       .  A
C1021      C1026   1.413       .  A
C1021      C1039   1.450       .  S
C1022      C1027   1.496       .  S
C1022      C1023   1.410       .  A
C1023      C1024   1.409       .  A
C1023      C1028   1.452       .  S
C1024      C1025   1.418       .  A
C1024      C1040   1.452       .  S
C1025      C1026   1.417       .  A
C1026      C1029   1.451       .  S
C1027      C1030   1.411       .  A
C1027      C1034   1.410       .  A
C1028      N1045   1.157       .  T
C1029      N1047   1.157       .  T
C1030      C1031   1.413       .  A
C1030      C1035   1.450       .  S
C1031      C1032   1.415       .  A
C1031      C1037   1.451       .  S
C1032      C1033   1.414       .  A
C1033      C1034   1.408       .  A
C1033      C1036   1.451       .  S
C1034      C1038   1.450       .  S
C1035      N1042   1.157   1_554  T
C1036      N1043   1.157       .  T
C1037      N1041   1.157   1_554  T
C1038      N1044   1.157       .  T
C1039      N1048   1.157       .  T
C1040      N1046   1.157       .  T
C1049      C1050   1.410       .  A
C1049      C1054   1.410       .  A
C1049      C1067   1.451       .  S
C1050      C1055   1.500       .  S
C1050      C1051   1.410       .  A
C1051      C1052   1.414       .  A
C1051      C1056   1.450       .  S
C1052      C1053   1.416       .  A
C1052      C1068   1.450       .  S
C1053      C1054   1.418       .  A
C1054      C1057   1.452       .  S
C1055      C1058   1.400       .  A
C1055      C1062   1.404       .  A
C1056      N1073   1.157       .  T
C1057      N1075   1.158       .  T
C1058      C1059   1.409       .  A
C1058      C1063   1.455       .  S
C1059      C1060   1.438       .  A
C1059      C1065   1.451       .  S
C1060      C1061   1.434       .  A
C1061      C1062   1.421       .  A
C1061      C1064   1.445       .  S
C1062      C1066   1.452       .  S
C1063      N1070   1.157       .  T
C1064      N1071   1.158       .  T
C1065      N1069   1.156       .  T
C1066      N1072   1.157       .  T
C1067      N1076   1.157       .  T
C1068      N1074   1.157       .  T
C1077      C1078   1.408   1_655  A
C1077      C1082   1.413       .  A
C1077      C1095   1.450   1_655  S
C1078      C1083   1.498       .  S
C1078      C1079   1.409       .  A
C1079      C1080   1.411   1_455  A
C1079      C1084   1.452       .  S
C1080      C1081   1.422       .  A
C1080      C1096   1.452       .  S
C1081      C1082   1.421       .  A
C1082      C1085   1.451       .  S
C1083      C1086   1.410       .  A
C1083      C1090   1.411       .  A
C1084      N1101   1.157       .  T
C1085      N1103   1.157       .  T
C1086      C1087   1.410       .  A
C1086      C1091   1.451       .  S
C1087      C1088   1.415       .  A
C1087      C1093   1.451       .  S
C1088      C1089   1.416       .  A
C1089      C1090   1.413       .  A
C1089      C1092   1.451       .  S
C1090      C1094   1.450       .  S
C1091      N1098   1.157       .  T
C1092      N1099   1.157       .  T
C1093      N1097   1.157       .  T
C1094      N1100   1.157       .  T
C1095      N1104   1.157       .  T
C1096      N1102   1.158       .  T
C1105      C1106   1.409       .  A
C1105      C1110   1.413       .  A
C1105      C1123   1.451       .  S
C1106      C1111   1.497       .  S
C1106      C1107   1.409       .  A
C1107      C1108   1.411   1_556  A
C1107      C1112   1.451       .  S
C1108      C1109   1.418       .  A
C1108      C1124   1.451       .  S
C1109      C1110   1.419   1_554  A
C1110      C1113   1.451       .  S
C1111      C1114   1.411       .  A
C1111      C1118   1.410       .  A
C1112      N1129   1.157       .  T
C1113      N1131   1.157       .  T
C1114      C1115   1.412       .  A
C1114      C1119   1.450       .  S
C1115      C1116   1.415       .  A
C1115      C1121   1.451       .  S
C1116      C1117   1.415       .  A
C1117      C1118   1.410       .  A
C1117      C1120   1.451       .  S
C1118      C1122   1.451       .  S
C1119      N1126   1.157   1_556  T
C1120      N1127   1.157       .  T
C1121      N1125   1.157       .  T
C1122      N1128   1.157       .  T
C1123      N1132   1.157       .  T
C1124      N1130   1.157       .  T
C1133      C1134   1.411       .  A
C1133      C1138   1.410   1_545  A
C1133      C1151   1.451       .  S
C1134      C1139   1.495       .  S
C1134      C1135   1.410   1_545  A
C1135      C1136   1.410       .  A
C1135      C1140   1.451   1_565  S
C1136      C1137   1.416       .  A
C1136      C1152   1.451       .  S
C1137      C1138   1.415       .  A
C1138      C1141   1.451       .  S
C1139      C1142   1.412       .  A
C1139      C1146   1.410       .  A
C1140      N1157   1.157       .  T
C1141      N1159   1.157       .  T
C1142      C1143   1.413       .  A
C1142      C1147   1.450       .  S
C1143      C1144   1.413       .  A
C1143      C1149   1.450       .  S
C1144      C1145   1.414       .  A
C1145      C1146   1.407       .  A
C1145      C1148   1.453       .  S
C1146      C1150   1.451       .  S
C1147      N1154   1.157       .  T
C1148      N1155   1.157       .  T
C1149      N1153   1.157       .  T
C1150      N1156   1.157       .  T
C1151      N1160   1.157       .  T
C1152      N1158   1.157       .  T
C1161      C1162   1.410       .  A
C1161      C1166   1.412       .  A
C1161      C1179   1.450       .  S
C1162      C1167   1.498       .  S
C1162      C1163   1.410       .  A
C1163      C1164   1.411       .  A
C1163      C1168   1.451   1_554  S
C1164      C1165   1.416       .  A
C1164      C1180   1.451   1_554  S
C1165      C1166   1.417       .  A
C1166      C1169   1.451       .  S
C1167      C1170   1.410       .  A
C1167      C1174   1.409       .  A
C1168      N1185   1.157       .  T
C1169      N1187   1.157       .  T
C1170      C1171   1.415   1_455  A
C1170      C1175   1.450       .  S
C1171      C1172   1.417       .  A
C1171      C1177   1.450       .  S
C1172      C1173   1.418       .  A
C1173      C1174   1.410   1_655  A
C1173      C1176   1.452       .  S
C1174      C1178   1.452       .  S
C1175      N1182   1.157       .  T
C1176      N1183   1.157       .  T
C1177      N1181   1.157       .  T
C1178      N1184   1.157       .  T
C1179      N1188   1.157       .  T
C1180      N1186   1.157       .  T
C1189      C1190   1.411       .  A
C1189      C1194   1.410       .  A
C1189      C1207   1.451       .  S
C1190      C1195   1.496       .  S
C1190      C1191   1.411       .  A
C1191      C1192   1.409       .  A
C1191      C1196   1.451       .  S
C1192      C1193   1.415       .  A
C1192      C1208   1.452       .  S
C1193      C1194   1.415       .  A
C1194      C1197   1.451       .  S
C1195      C1198   1.405       .  A
C1195      C1202   1.402       .  A
C1196      N1213   1.157       .  T
C1197      N1215   1.157       .  T
C1198      C1199   1.418       .  A
C1198      C1203   1.453       .  S
C1199      C1200   1.430       .  A
C1199      C1205   1.445       .  S
C1200      C1201   1.438       .  A
C1201      C1202   1.406       .  A
C1201      C1204   1.455       .  S
C1202      C1206   1.456       .  S
C1203      N1210   1.157       .  T
C1204      N1211   1.158       .  T
C1205      N1209   1.158       .  T
C1206      N1212   1.157       .  T
C1207      N1216   1.157       .  T
C1208      N1214   1.157       .  T
C1217      C1218   1.411       .  A
C1217      C1222   1.410       .  A
C1217      C1235   1.451       .  S
C1218      C1223   1.495       .  S
C1218      C1219   1.411       .  A
C1219      C1220   1.410       .  A
C1219      C1224   1.451       .  S
C1220      C1221   1.415       .  A
C1220      C1236   1.452       .  S
C1221      C1222   1.415       .  A
C1222      C1225   1.451       .  S
C1223      C1226   1.411       .  A
C1223      C1230   1.409       .  A
C1224      N1241   1.157       .  T
C1225      N1243   1.157   1_556  T
C1226      C1227   1.412       .  A
C1226      C1231   1.451   1_556  S
C1227      C1228   1.417       .  A
C1227      C1233   1.451       .  S
C1228      C1229   1.418       .  A
C1229      C1230   1.409       .  A
C1229      C1232   1.452       .  S
C1230      C1234   1.451       .  S
C1231      N1238   1.157       .  T
C1232      N1239   1.157       .  T
C1233      N1237   1.158       .  T
C1234      N1240   1.157       .  T
C1235      N1244   1.157       .  T
C1236      N1242   1.157   1_556  T
C1245      C1246   1.409       .  A
C1245      C1250   1.413       .  A
C1245      C1263   1.450       .  S
C1246      C1251   1.496       .  S
C1246      C1247   1.410       .  A
C1247      C1248   1.410       .  A
C1247      C1252   1.452       .  S
C1248      C1249   1.418       .  A
C1248      C1264   1.452   1_556  S
C1249      C1250   1.418       .  A
C1250      C1253   1.450       .  S
C1251      C1254   1.409       .  A
C1251      C1258   1.410       .  A
C1252      N1269   1.157       .  T
C1253      N1271   1.157       .  T
C1254      C1255   1.411       .  A
C1254      C1259   1.451       .  S
C1255      C1256   1.417       .  A
C1255      C1261   1.451       .  S
C1256      C1257   1.416       .  A
C1257      C1258   1.411       .  A
C1257      C1260   1.451       .  S
C1258      C1262   1.451       .  S
C1259      N1266   1.157   1_556  T
C1260      N1267   1.157       .  T
C1261      N1265   1.157       .  T
C1262      N1268   1.157       .  T
C1263      N1272   1.157       .  T
C1264      N1270   1.157       .  T
C1273      C1274   1.411       .  A
C1273      C1278   1.411       .  A
C1273      C1291   1.450       .  S
C1274      C1279   1.502       .  S
C1274      C1275   1.411       .  A
C1275      C1276   1.415       .  A
C1275      C1280   1.450       .  S
C1276      C1277   1.418       .  A
C1276      C1292   1.451       .  S
C1277      C1278   1.415       .  A
C1278      C1281   1.451       .  S
C1279      C1282   1.410       .  A
C1279      C1286   1.412       .  A
C1280      N1297   1.157       .  T
C1281      N1299   1.157       .  T
C1282      C1283   1.412       .  A
C1282      C1287   1.451       .  S
C1283      C1284   1.417       .  A
C1283      C1289   1.452       .  S
C1284      C1285   1.414       .  A
C1285      C1286   1.416       .  A
C1285      C1288   1.449       .  S
C1286      C1290   1.449       .  S
C1287      N1294   1.157       .  T
C1288      N1295   1.157       .  T
C1289      N1293   1.157       .  T
C1290      N1296   1.157       .  T
C1291      N1300   1.157       .  T
C1292      N1298   1.158       .  T
C1301      C1302   1.408       .  A
C1301      C1306   1.411       .  A
C1301      C1319   1.451       .  S
C1302      C1307   1.494       .  S
C1302      C1303   1.408       .  A
C1303      C1304   1.411       .  A
C1303      C1308   1.451       .  S
C1304      C1305   1.420       .  A
C1304      C1320   1.452       .  S
C1305      C1306   1.420       .  A
C1306      C1309   1.451       .  S
C1307      C1310   1.410       .  A
C1307      C1314   1.409       .  A
C1308      N1325   1.157   1_556  T
C1309      N1327   1.158       .  T
C1310      C1311   1.412       .  A
C1310      C1315   1.450       .  S
C1311      C1312   1.417   1_556  A
C1311      C1317   1.451       .  S
C1312      C1313   1.418       .  A
C1313      C1314   1.409   1_554  A
C1313      C1316   1.452       .  S
C1314      C1318   1.452   1_556  S
C1315      N1322   1.157       .  T
C1316      N1323   1.157       .  T
C1317      N1321   1.157       .  T
C1318      N1324   1.157       .  T
C1319      N1328   1.157       .  T
C1320      N1326   1.158       .  T
C1329      C1330   1.410       .  A
C1329      C1334   1.414       .  A
C1329      C1347   1.451       .  S
C1330      C1335   1.502       .  S
C1330      C1331   1.410       .  A
C1331      C1332   1.412       .  A
C1331      C1336   1.451       .  S
C1332      C1333   1.418       .  A
C1332      C1348   1.451       .  S
C1333      C1334   1.419       .  A
C1334      C1337   1.451       .  S
C1335      C1338   1.411       .  A
C1335      C1342   1.411       .  A
C1336      N1353   1.157       .  T
C1337      N1355   1.157   1_554  T
C1338      C1339   1.414   1_545  A
C1338      C1343   1.450       .  S
C1339      C1340   1.415       .  A
C1339      C1345   1.450       .  S
C1340      C1341   1.419       .  A
C1341      C1342   1.413   1_565  A
C1341      C1344   1.452       .  S
C1342      C1346   1.451       .  S
C1343      N1350   1.157       .  T
C1344      N1351   1.158       .  T
C1345      N1349   1.157       .  T
C1346      N1352   1.157       .  T
C1347      N1356   1.157   1_554  T
C1348      N1354   1.157       .  T
C1357      C1358   1.411       .  A
C1357      C1362   1.411       .  A
C1357      C1375   1.452       .  S
C1358      C1363   1.496       .  S
C1358      C1359   1.409       .  A
C1359      C1360   1.412       .  A
C1359      C1364   1.449       .  S
C1360      C1361   1.416       .  A
C1360      C1376   1.451       .  S
C1361      C1362   1.416       .  A
C1362      C1365   1.452       .  S
C1363      C1366   1.408       .  A
C1363      C1370   1.408       .  A
C1364      N1381   1.157       .  T
C1365      N1383   1.158       .  T
C1366      C1367   1.412       .  A
C1366      C1371   1.449       .  S
C1367      C1368   1.419       .  A
C1367      C1373   1.449       .  S
C1368      C1369   1.422       .  A
C1369      C1370   1.411       .  A
C1369      C1372   1.451       .  S
C1370      C1374   1.450       .  S
C1371      N1378   1.157       .  T
C1372      N1379   1.157       .  T
C1373      N1377   1.157       .  T
C1374      N1380   1.157       .  T
C1375      N1384   1.157       .  T
C1376      N1382   1.157       .  T
C1385      C1386   1.412       .  A
C1385      C1390   1.416       .  A
C1385      C1403   1.450       .  S
C1386      C1391   1.507       .  S
C1386      C1387   1.412   1_556  A
C1387      C1388   1.414       .  A
C1387      C1392   1.451       .  S
C1388      C1389   1.418       .  A
C1388      C1404   1.451       .  S
C1389      C1390   1.418   1_554  A
C1390      C1393   1.450       .  S
C1391      C1394   1.411       .  A
C1391      C1398   1.410       .  A
C1392      N1409   1.157       .  T
C1393      N1411   1.157       .  T
C1394      C1395   1.417       .  A
C1394      C1399   1.450       .  S
C1395      C1396   1.419       .  A
C1395      C1401   1.450       .  S
C1396      C1397   1.421       .  A
C1397      C1398   1.414       .  A
C1397      C1400   1.451       .  S
C1398      C1402   1.451       .  S
C1399      N1406   1.157       .  T
C1400      N1407   1.157       .  T
C1401      N1405   1.157       .  T
C1402      N1408   1.157       .  T
C1403      N1412   1.157       .  T
C1404      N1410   1.157       .  T
C1413      C1414   1.410       .  A
C1413      C1418   1.407       .  A
C1413      C1431   1.452       .  S
C1414      C1419   1.493       .  S
C1414      C1415   1.411       .  A
C1415      C1416   1.410       .  A
C1415      C1420   1.451       .  S
C1416      C1417   1.415       .  A
C1416      C1432   1.451       .  S
C1417      C1418   1.414       .  A
C1418      C1421   1.452       .  S
C1419      C1422   1.408       .  A
C1419      C1426   1.408   1_556  A
C1420      N1437   1.157       .  T
C1421      N1439   1.157       .  T
C1422      C1423   1.407       .  A
C1422      C1427   1.452       .  S
C1423      C1424   1.419   1_556  A
C1423      C1429   1.452       .  S
C1424      C1425   1.422       .  A
C1425      C1426   1.411       .  A
C1425      C1428   1.452       .  S
C1426      C1430   1.452       .  S
C1427      N1434   1.157       .  T
C1428      N1435   1.158       .  T
C1429      N1433   1.157       .  T
C1430      N1436   1.157       .  T
C1431      N1440   1.157       .  T
C1432      N1438   1.157       .  T
C1441      C1442   1.408       .  A
C1441      C1446   1.419       .  A
C1441      C1459   1.450       .  S
C1442      C1447   1.500       .  S
C1442      C1443   1.404       .  A
C1443      C1444   1.409       .  A
C1443      C1448   1.455       .  S
C1444      C1445   1.430       .  A
C1444      C1460   1.449       .  S
C1445      C1446   1.428       .  A
C1446      C1449   1.448       .  S
C1447      C1450   1.412       .  A
C1447      C1454   1.413       .  A
C1448      N1465   1.157       .  T
C1449      N1467   1.158       .  T
C1450      C1451   1.410       .  A
C1450      C1455   1.450       .  S
C1451      C1452   1.412       .  A
C1451      C1457   1.452       .  S
C1452      C1453   1.414       .  A
C1453      C1454   1.414       .  A
C1453      C1456   1.450       .  S
C1454      C1458   1.450       .  S
C1455      N1462   1.157       .  T
C1456      N1463   1.157       .  T
C1457      N1461   1.157       .  T
C1458      N1464   1.157       .  T
C1459      N1468   1.157       .  T
C1460      N1466   1.156       .  T
C1469      C1470   1.416       .  A
C1469      C1474   1.417       .  A
C1469      C1487   1.450       .  S
C1470      C1475   1.508       .  S
C1470      C1471   1.413       .  A
C1471      C1472   1.407       .  A
C1471      C1476   1.454       .  S
C1472      C1473   1.416       .  A
C1472      C1488   1.450       .  S
C1473      C1474   1.417       .  A
C1474      C1477   1.450       .  S
C1475      C1478   1.417       .  A
C1475      C1482   1.417       .  A
C1476      N1493   1.157       .  T
C1477      N1495   1.157       .  T
C1478      C1479   1.411       .  A
C1478      C1483   1.451       .  S
C1479      C1480   1.408       .  A
C1479      C1485   1.447       .  S
C1480      C1481   1.407       .  A
C1481      C1482   1.412       .  A
C1481      C1484   1.448       .  S
C1482      C1486   1.449       .  S
C1483      N1490   1.157       .  T
C1484      N1491   1.158       .  T
C1485      N1489   1.156       .  T
C1486      N1492   1.157       .  T
C1487      N1496   1.157       .  T
C1488      N1494   1.157       .  T
C1497      C1498   1.408       .  A
C1497      C1502   1.414       .  A
C1497      C1515   1.450       .  S
C1498      C1503   1.499       .  S
C1498      C1499   1.409       .  A
C1499      C1500   1.411       .  A
C1499      C1504   1.451       .  S
C1500      C1501   1.418       .  A
C1500      C1516   1.447       .  S
C1501      C1502   1.424       .  A
C1502      C1505   1.450       .  S
C1503      C1506   1.411       .  A
C1503      C1510   1.411       .  A
C1504      N1521   1.157       .  T
C1505      N1523   1.157       .  T
C1506      C1507   1.415       .  A
C1506      C1511   1.450       .  S
C1507      C1508   1.417       .  A
C1507      C1513   1.450       .  S
C1508      C1509   1.416       .  A
C1509      C1510   1.410       .  A
C1509      C1512   1.451       .  S
C1510      C1514   1.452       .  S
C1511      N1518   1.157       .  T
C1512      N1519   1.157       .  T
C1513      N1517   1.157       .  T
C1514      N1520   1.157       .  T
C1515      N1524   1.157       .  T
C1516      N1522   1.156       .  T
C1525      C1526   1.413       .  A
C1525      C1530   1.411       .  A
C1525      C1543   1.451       .  S
C1526      C1531   1.501       .  S
C1526      C1527   1.409       .  A
C1527      C1528   1.409       .  A
C1527      C1532   1.453       .  S
C1528      C1529   1.425       .  A
C1528      C1544   1.451       .  S
C1529      C1530   1.417       .  A
C1530      C1533   1.449       .  S
C1531      C1534   1.415       .  A
C1531      C1538   1.415       .  A
C1532      N1549   1.157       .  T
C1533      N1551   1.157       .  T
C1534      C1535   1.413       .  A
C1534      C1539   1.450       .  S
C1535      C1536   1.409       .  A
C1535      C1541   1.449       .  S
C1536      C1537   1.414       .  A
C1537      C1538   1.404       .  A
C1537      C1540   1.452       .  S
C1538      C1542   1.453       .  S
C1539      N1546   1.157       .  T
C1540      N1547   1.158       .  T
C1541      N1545   1.157       .  T
C1542      N1548   1.157       .  T
C1543      N1552   1.157       .  T
C1544      N1550   1.158       .  T
C1553      C1554   1.399       .  A
C1553      C1558   1.410       .  A
C1553      C1571   1.454       .  S
C1554      C1559   1.496       .  S
C1554      C1555   1.401       .  A
C1555      C1556   1.417       .  A
C1555      C1560   1.452       .  S
C1556      C1557   1.433       .  A
C1556      C1572   1.446       .  S
C1557      C1558   1.433       .  A
C1558      C1561   1.443       .  S
C1559      C1562   1.406       .  A
C1559      C1566   1.407       .  A
C1560      N1577   1.157       .  T
C1561      N1579   1.156       .  T
C1562      C1563   1.411       .  A
C1562      C1567   1.452       .  S
C1563      C1564   1.426       .  A
C1563      C1569   1.452       .  S
C1564      C1565   1.417       .  A
C1565      C1566   1.413       .  A
C1565      C1568   1.445       .  S
C1566      C1570   1.452       .  S
C1567      N1574   1.157       .  T
C1568      N1575   1.156       .  T
C1569      N1573   1.158       .  T
C1570      N1576   1.157       .  T
C1571      N1580   1.156       .  T
C1572      N1578   1.156       .  T
C1581      C1582   1.410       .  A
C1581      C1586   1.410       .  A
C1581      C1599   1.450       .  S
C1582      C1587   1.493       .  S
C1582      C1583   1.410       .  A
C1583      C1584   1.407       .  A
C1583      C1588   1.451       .  S
C1584      C1585   1.412       .  A
C1584      C1600   1.450       .  S
C1585      C1586   1.414       .  A
C1586      C1589   1.451       .  S
C1587      C1590   1.406       .  A
C1587      C1594   1.407       .  A
C1588      N1605   1.157       .  T
C1589      N1607   1.157       .  T
C1590      C1591   1.410       .  A
C1590      C1595   1.454       .  S
C1591      C1592   1.420       .  A
C1591      C1597   1.447       .  S
C1592      C1593   1.420       .  A
C1593      C1594   1.412       .  A
C1593      C1596   1.449       .  S
C1594      C1598   1.451       .  S
C1595      N1602   1.157       .  T
C1596      N1603   1.157       .  T
C1597      N1601   1.156       .  T
C1598      N1604   1.157       .  T
C1599      N1608   1.157       .  T
C1600      N1606   1.157       .  T
C1609      C1610   1.408       .  A
C1609      C1614   1.409       .  A
C1609      C1627   1.451       .  S
C1610      C1615   1.497       .  S
C1610      C1611   1.410       .  A
C1611      C1612   1.414       .  A
C1611      C1616   1.450       .  S
C1612      C1613   1.418       .  A
C1612      C1628   1.450       .  S
C1613      C1614   1.418       .  A
C1614      C1617   1.452       .  S
C1615      C1618   1.405       .  A
C1615      C1622   1.402       .  A
C1616      N1633   1.157       .  T
C1617      N1635   1.157       .  T
C1618      C1619   1.420       .  A
C1618      C1623   1.451       .  S
C1619      C1620   1.429       .  A
C1619      C1625   1.445       .  S
C1620      C1621   1.437       .  A
C1621      C1622   1.406       .  A
C1621      C1624   1.454       .  S
C1622      C1626   1.456       .  S
C1623      N1630   1.157       .  T
C1624      N1631   1.157       .  T
C1625      N1629   1.157       .  T
C1626      N1632   1.157       .  T
C1627      N1636   1.157       .  T
C1628      N1634   1.157       .  T
C1637      C1638   1.414       .  A
C1637      C1642   1.409       .  A
C1637      C1655   1.452       .  S
C1638      C1643   1.500       .  S
C1638      C1639   1.413       .  A
C1639      C1640   1.412       .  A
C1639      C1644   1.450       .  S
C1640      C1641   1.412       .  A
C1640      C1656   1.451       .  S
C1641      C1642   1.409       .  A
C1642      C1645   1.448       .  S
C1643      C1646   1.408       .  A
C1643      C1650   1.407       .  A
C1644      N1661   1.157       .  T
C1645      N1663   1.157       .  T
C1646      C1647   1.412       .  A
C1646      C1651   1.450       .  S
C1647      C1648   1.423       .  A
C1647      C1653   1.451       .  S
C1648      C1649   1.430       .  A
C1649      C1650   1.410       .  A
C1649      C1652   1.448       .  S
C1650      C1654   1.455       .  S
C1651      N1658   1.157       .  T
C1652      N1659   1.158       .  T
C1653      N1657   1.157       .  T
C1654      N1660   1.157       .  T
C1655      N1664   1.157       .  T
C1656      N1662   1.157       .  T
C1665      C1666   1.406       .  A
C1665      C1670   1.410       .  A
C1665      C1683   1.451       .  S
C1666      C1671   1.491       .  S
C1666      C1667   1.405       .  A
C1667      C1668   1.410       .  A
C1667      C1672   1.452       .  S
C1668      C1669   1.423       .  A
C1668      C1684   1.448       .  S
C1669      C1670   1.418       .  A
C1670      C1673   1.448       .  S
C1671      C1674   1.407       .  A
C1671      C1678   1.408       .  A
C1672      N1689   1.157       .  T
C1673      N1691   1.156       .  T
C1674      C1675   1.413       .  A
C1674      C1679   1.450       .  S
C1675      C1676   1.419       .  A
C1675      C1681   1.449       .  S
C1676      C1677   1.414       .  A
C1677      C1678   1.407       .  A
C1677      C1680   1.443       .  S
C1678      C1682   1.454       .  S
C1679      N1686   1.157       .  T
C1680      N1687   1.154       .  T
C1681      N1685   1.157       .  T
C1682      N1688   1.157       .  T
C1683      N1692   1.157       .  T
C1684      N1690   1.157       .  T
C1693      C1694   1.408       .  A
C1693      C1698   1.411       .  A
C1693      C1711   1.451       .  S
C1694      C1699   1.501       .  S
C1694      C1695   1.409       .  A
C1695      C1696   1.414       .  A
C1695      C1700   1.452       .  S
C1696      C1697   1.424       .  A
C1696      C1712   1.448       .  S
C1697      C1698   1.416       .  A
C1698      C1701   1.444       .  S
C1699      C1702   1.407       .  A
C1699      C1706   1.408       .  A
C1700      N1717   1.157       .  T
C1701      N1719   1.155       .  T
C1702      C1703   1.414       .  A
C1702      C1707   1.451       .  S
C1703      C1704   1.422       .  A
C1703      C1709   1.448       .  S
C1704      C1705   1.422       .  A
C1705      C1706   1.412       .  A
C1705      C1708   1.442       .  S
C1706      C1710   1.453       .  S
C1707      N1714   1.157       .  T
C1708      N1715   1.156       .  T
C1709      N1713   1.157       .  T
C1710      N1716   1.157       .  T
C1711      N1720   1.157       .  T
C1712      N1718   1.157       .  T
C1721      C1722   1.410       .  A
C1721      C1726   1.412       .  A
C1721      C1739   1.450       .  S
C1722      C1727   1.498       .  S
C1722      C1723   1.414       .  A
C1723      C1724   1.407       .  A
C1723      C1728   1.452       .  S
C1724      C1725   1.408       .  A
C1724      C1740   1.446       .  S
C1725      C1726   1.418       .  A
C1726      C1729   1.451       .  S
C1727      C1730   1.414       .  A
C1727      C1734   1.409       .  A
C1728      N1745   1.157       .  T
C1729      N1747   1.157       .  T
C1730      C1731   1.415       .  A
C1730      C1735   1.450       .  S
C1731      C1732   1.412       .  A
C1731      C1737   1.450       .  S
C1732      C1733   1.420       .  A
C1733      C1734   1.406       .  A
C1733      C1736   1.452       .  S
C1734      C1738   1.453       .  S
C1735      N1742   1.157       .  T
C1736      N1743   1.157       .  T
C1737      N1741   1.157       .  T
C1738      N1744   1.157       .  T
C1739      N1748   1.157       .  T
C1740      N1746   1.155       .  T
C1749      C1750   1.408       .  A
C1749      C1754   1.413       .  A
C1749      C1767   1.453       .  S
C1750      C1755   1.506       .  S
C1750      C1751   1.410       .  A
C1751      C1752   1.419       .  A
C1751      C1756   1.449       .  S
C1752      C1753   1.421       .  A
C1752      C1768   1.450       .  S
C1753      C1754   1.420       .  A
C1754      C1757   1.446       .  S
C1755      C1758   1.409       .  A
C1755      C1762   1.408       .  A
C1756      N1773   1.157       .  T
C1757      N1775   1.156       .  T
C1758      C1759   1.417       .  A
C1758      C1763   1.450       .  S
C1759      C1760   1.423       .  A
C1759      C1765   1.450       .  S
C1760      C1761   1.422       .  A
C1761      C1762   1.413       .  A
C1761      C1764   1.446       .  S
C1762      C1766   1.452       .  S
C1763      N1770   1.157       .  T
C1764      N1771   1.157       .  T
C1765      N1769   1.157       .  T
C1766      N1772   1.157       .  T
C1767      N1776   1.157       .  T
C1768      N1774   1.157       .  T
C1777      C1778   1.412       .  A
C1777      C1782   1.416       .  A
C1777      C1795   1.449       .  S
C1778      C1783   1.503       .  S
C1778      C1779   1.411       .  A
C1779      C1780   1.410       .  A
C1779      C1784   1.451       .  S
C1780      C1781   1.416       .  A
C1780      C1796   1.452       .  S
C1781      C1782   1.415       .  A
C1782      C1785   1.450       .  S
C1783      C1786   1.407       .  A
C1783      C1790   1.403       .  A
C1784      N1801   1.157       .  T
C1785      N1803   1.157       .  T
C1786      C1787   1.421       .  A
C1786      C1791   1.451       .  S
C1787      C1788   1.429       .  A
C1787      C1793   1.445       .  S
C1788      C1789   1.438       .  A
C1789      C1790   1.410       .  A
C1789      C1792   1.454       .  S
C1790      C1794   1.455       .  S
C1791      N1798   1.157       .  T
C1792      N1799   1.158       .  T
C1793      N1797   1.157       .  T
C1794      N1800   1.157       .  T
C1795      N1804   1.157       .  T
C1796      N1802   1.157       .  T
C1805      C1806   1.411       .  A
C1805      C1810   1.421       .  A
C1805      C1823   1.450       .  S
C1806      C1811   1.511       .  S
C1806      C1807   1.408       .  A
C1807      C1808   1.414       .  A
C1807      C1812   1.451       .  S
C1808      C1809   1.420       .  A
C1808      C1824   1.447       .  S
C1809      C1810   1.422       .  A
C1810      C1813   1.448       .  S
C1811      C1814   1.411       .  A
C1811      C1818   1.410       .  A
C1812      N1829   1.157       .  T
C1813      N1831   1.156       .  T
C1814      C1815   1.416       .  A
C1814      C1819   1.451       .  S
C1815      C1816   1.418       .  A
C1815      C1821   1.447       .  S
C1816      C1817   1.422       .  A
C1817      C1818   1.419       .  A
C1817      C1820   1.450       .  S
C1818      C1822   1.450       .  S
C1819      N1826   1.157       .  T
C1820      N1827   1.157       .  T
C1821      N1825   1.156       .  T
C1822      N1828   1.157       .  T
C1823      N1832   1.157       .  T
C1824      N1830   1.156       .  T
C1833      C1834   1.409       .  A
C1833      C1838   1.408       .  A
C1833      C1851   1.453       .  S
C1834      C1839   1.490       .  S
C1834      C1835   1.405       .  A
C1835      C1836   1.409       .  A
C1835      C1840   1.451       .  S
C1836      C1837   1.415       .  A
C1836      C1852   1.443       .  S
C1837      C1838   1.419       .  A
C1838      C1841   1.448       .  S
C1839      C1842   1.405       .  A
C1839      C1846   1.402       .  A
C1840      N1857   1.157       .  T
C1841      N1859   1.156       .  T
C1842      C1843   1.409       .  A
C1842      C1847   1.455       .  S
C1843      C1844   1.429       .  A
C1843      C1849   1.449       .  S
C1844      C1845   1.430       .  A
C1845      C1846   1.410       .  A
C1845      C1848   1.452       .  S
C1846      C1850   1.451       .  S
C1847      N1854   1.157       .  T
C1848      N1855   1.158       .  T
C1849      N1853   1.158       .  T
C1850      N1856   1.157       .  T
C1851      N1860   1.157       .  T
C1852      N1858   1.155       .  T
C1861      C1862   1.410       .  A
C1861      C1866   1.415       .  A
C1861      C1879   1.450       .  S
C1862      C1867   1.496       .  S
C1862      C1863   1.409       .  A
C1863      C1864   1.409       .  A
C1863      C1868   1.453       .  S
C1864      C1865   1.419       .  A
C1864      C1880   1.452       .  S
C1865      C1866   1.419       .  A
C1866      C1869   1.450       .  S
C1867      C1870   1.407       .  A
C1867      C1874   1.408       .  A
C1868      N1885   1.157       .  T
C1869      N1887   1.157       .  T
C1870      C1871   1.410       .  A
C1870      C1875   1.451       .  S
C1871      C1872   1.422       .  A
C1871      C1877   1.450       .  S
C1872      C1873   1.422       .  A
C1873      C1874   1.413       .  A
C1873      C1876   1.450       .  S
C1874      C1878   1.449       .  S
C1875      N1882   1.157       .  T
C1876      N1883   1.157       .  T
C1877      N1881   1.157       .  T
C1878      N1884   1.157       .  T
C1879      N1888   1.157       .  T
C1880      N1886   1.157       .  T
C1889      C1890   1.407       .  A
C1889      C1894   1.412       .  A
C1889      C1907   1.452       .  S
C1890      C1895   1.498       .  S
C1890      C1891   1.407       .  A
C1891      C1892   1.413       .  A
C1891      C1896   1.451       .  S
C1892      C1893   1.420       .  A
C1892      C1908   1.449       .  S
C1893      C1894   1.427       .  A
C1894      C1897   1.451       .  S
C1895      C1898   1.409       .  A
C1895      C1902   1.411       .  A
C1896      N1913   1.157       .  T
C1897      N1915   1.158       .  T
C1898      C1899   1.407       .  A
C1898      C1903   1.452       .  S
C1899      C1900   1.411       .  A
C1899      C1905   1.445       .  S
C1900      C1901   1.415       .  A
C1901      C1902   1.415       .  A
C1901      C1904   1.450       .  S
C1902      C1906   1.449       .  S
C1903      N1910   1.157       .  T
C1904      N1911   1.157       .  T
C1905      N1909   1.155       .  T
C1906      N1912   1.157       .  T
C1907      N1916   1.157       .  T
C1908      N1914   1.157       .  T
C1917      C1918   1.407       .  A
C1917      C1922   1.413       .  A
C1917      C1935   1.454       .  S
C1918      C1923   1.501       .  S
C1918      C1919   1.407       .  A
C1919      C1920   1.414       .  A
C1919      C1924   1.451       .  S
C1920      C1921   1.427       .  A
C1920      C1936   1.451       .  S
C1921      C1922   1.424       .  A
C1922      C1925   1.446       .  S
C1923      C1926   1.412       .  A
C1923      C1930   1.410       .  A
C1924      N1941   1.157       .  T
C1925      N1943   1.157       .  T
C1926      C1927   1.415       .  A
C1926      C1931   1.449       .  S
C1927      C1928   1.414       .  A
C1927      C1933   1.448       .  S
C1928      C1929   1.414       .  A
C1929      C1930   1.409       .  A
C1929      C1932   1.446       .  S
C1930      C1934   1.453       .  S
C1931      N1938   1.157       .  T
C1932      N1939   1.156       .  T
C1933      N1937   1.157       .  T
C1934      N1940   1.157       .  T
C1935      N1944   1.157       .  T
C1936      N1942   1.157       .  T
C1945      C1946   1.407       .  A
C1945      C1950   1.415       .  A
C1945      C1963   1.453       .  S
C1946      C1951   1.509       .  S
C1946      C1947   1.406       .  A
C1947      C1948   1.418       .  A
C1947      C1952   1.454       .  S
C1948      C1949   1.435       .  A
C1948      C1964   1.448       .  S
C1949      C1950   1.432       .  A
C1950      C1953   1.450       .  S
C1951      C1954   1.415       .  A
C1951      C1958   1.412       .  A
C1952      N1969   1.157       .  T
C1953      N1971   1.158       .  T
C1954      C1955   1.418       .  A
C1954      C1959   1.450       .  S
C1955      C1956   1.413       .  A
C1955      C1961   1.447       .  S
C1956      C1957   1.416       .  A
C1957      C1958   1.411       .  A
C1957      C1960   1.448       .  S
C1958      C1962   1.452       .  S
C1959      N1966   1.157       .  T
C1960      N1967   1.156       .  T
C1961      N1965   1.156       .  T
C1962      N1968   1.157       .  T
C1963      N1972   1.157       .  T
C1964      N1970   1.158       .  T
C1973      C1974   1.409       .  A
C1973      C1978   1.413       .  A
C1973      C1991   1.451       .  S
C1974      C1979   1.500       .  S
C1974      C1975   1.410       .  A
C1975      C1976   1.411       .  A
C1975      C1980   1.452       .  S
C1976      C1977   1.421       .  A
C1976      C1992   1.450       .  S
C1977      C1978   1.416       .  A
C1978      C1981   1.448       .  S
C1979      C1982   1.409       .  A
C1979      C1986   1.408       .  A
C1980      N1997   1.157       .  T
C1981      N1999   1.156       .  T
C1982      C1983   1.414       .  A
C1982      C1987   1.450       .  S
C1983      C1984   1.423       .  A
C1983      C1989   1.452       .  S
C1984      C1985   1.414       .  A
C1985      C1986   1.410       .  A
C1985      C1988   1.442       .  S
C1986      C1990   1.453       .  S
C1987      N1994   1.157       .  T
C1988      N1995   1.155       .  T
C1989      N1993   1.157       .  T
C1990      N1996   1.157       .  T
C1991      N2000   1.157       .  T
C1992      N1998   1.157       .  T
C2001      C2002   1.403       .  A
C2001      C2006   1.417       .  A
C2001      C2019   1.453       .  S
C2002      C2007   1.496       .  S
C2002      C2003   1.401       .  A
C2003      C2004   1.409       .  A
C2003      C2008   1.455       .  S
C2004      C2005   1.435       .  A
C2004      C2020   1.451       .  S
C2005      C2006   1.432       .  A
C2006      C2009   1.444       .  S
C2007      C2010   1.409       .  A
C2007      C2014   1.409       .  A
C2008      N2025   1.157       .  T
C2009      N2027   1.157       .  T
C2010      C2011   1.413       .  A
C2010      C2015   1.450       .  S
C2011      C2012   1.418       .  A
C2011      C2017   1.450       .  S
C2012      C2013   1.417       .  A
C2013      C2014   1.408       .  A
C2013      C2016   1.452       .  S
C2014      C2018   1.452       .  S
C2015      N2022   1.157       .  T
C2016      N2023   1.157       .  T
C2017      N2021   1.157       .  T
C2018      N2024   1.157       .  T
C2019      N2028   1.157       .  T
C2020      N2026   1.156       .  T
C2029      C2030   1.407       .  A
C2029      C2034   1.413       .  A
C2029      C2047   1.450       .  S
C2030      C2035   1.501       .  S
C2030      C2031   1.406       .  A
C2031      C2032   1.414       .  A
C2031      C2036   1.456       .  S
C2032      C2033   1.438       .  A
C2032      C2048   1.448       .  S
C2033      C2034   1.426       .  A
C2034      C2037   1.451       .  S
C2035      C2038   1.415       .  A
C2035      C2042   1.413       .  A
C2036      N2053   1.157       .  T
C2037      N2055   1.158       .  T
C2038      C2039   1.408       .  A
C2038      C2043   1.450       .  S
C2039      C2040   1.406       .  A
C2039      C2045   1.447       .  S
C2040      C2041   1.411       .  A
C2041      C2042   1.412       .  A
C2041      C2044   1.451       .  S
C2042      C2046   1.450       .  S
C2043      N2050   1.157       .  T
C2044      N2051   1.157       .  T
C2045      N2049   1.156       .  T
C2046      N2052   1.157       .  T
C2047      N2056   1.157       .  T
C2048      N2054   1.158       .  T
C2057      C2058   1.404       .  A
C2057      C2062   1.411       .  A
C2057      C2075   1.451       .  S
C2058      C2063   1.492       .  S
C2058      C2059   1.406       .  A
C2059      C2060   1.410       .  A
C2059      C2064   1.453       .  S
C2060      C2061   1.427       .  A
C2060      C2076   1.450       .  S
C2061      C2062   1.421       .  A
C2062      C2065   1.445       .  S
C2063      C2066   1.411       .  A
C2063      C2070   1.408       .  A
C2064      N2081   1.157       .  T
C2065      N2083   1.155       .  T
C2066      C2067   1.413       .  A
C2066      C2071   1.449       .  S
C2067      C2068   1.412       .  A
C2067      C2073   1.450       .  S
C2068      C2069   1.408       .  A
C2069      C2070   1.401       .  A
C2069      C2072   1.447       .  S
C2070      C2074   1.450       .  S
C2071      N2078   1.157       .  T
C2072      N2079   1.156       .  T
C2073      N2077   1.157       .  T
C2074      N2080   1.156       .  T
C2075      N2084   1.157       .  T
C2076      N2082   1.157       .  T
C2085      C2086   1.412       .  A
C2085      C2090   1.410       .  A
C2085      C2103   1.450       .  S
C2086      C2091   1.500       .  S
C2086      C2087   1.414       .  A
C2087      C2088   1.412       .  A
C2087      C2092   1.449       .  S
C2088      C2089   1.410       .  A
C2088      C2104   1.449       .  S
C2089      C2090   1.411       .  A
C2090      C2093   1.451       .  S
C2091      C2094   1.409       .  A
C2091      C2098   1.407       .  A
C2092      N2109   1.157       .  T
C2093      N2111   1.157       .  T
C2094      C2095   1.416       .  A
C2094      C2099   1.450       .  S
C2095      C2096   1.423       .  A
C2095      C2101   1.449       .  S
C2096      C2097   1.424       .  A
C2097      C2098   1.409       .  A
C2097      C2100   1.448       .  S
C2098      C2102   1.455       .  S
C2099      N2106   1.157       .  T
C2100      N2107   1.156       .  T
C2101      N2105   1.157       .  T
C2102      N2108   1.157       .  T
C2103      N2112   1.157       .  T
C2104      N2110   1.157       .  T
C2113      C2114   1.410       .  A
C2113      C2118   1.414       .  A
C2113      C2131   1.450       .  S
C2114      C2119   1.503       .  S
C2114      C2115   1.408       .  A
C2115      C2116   1.414       .  A
C2115      C2120   1.449       .  S
C2116      C2117   1.422       .  A
C2116      C2132   1.449       .  S
C2117      C2118   1.422       .  A
C2118      C2121   1.449       .  S
C2119      C2122   1.410       .  A
C2119      C2126   1.411       .  A
C2120      N2137   1.157       .  T
C2121      N2139   1.158       .  T
C2122      C2123   1.411       .  A
C2122      C2127   1.451       .  S
C2123      C2124   1.417       .  A
C2123      C2129   1.451       .  S
C2124      C2125   1.419       .  A
C2125      C2126   1.417       .  A
C2125      C2128   1.450       .  S
C2126      C2130   1.450       .  S
C2127      N2134   1.157       .  T
C2128      N2135   1.157       .  T
C2129      N2133   1.157       .  T
C2130      N2136   1.157       .  T
C2131      N2140   1.157       .  T
C2132      N2138   1.157       .  T
C2141      C2142   1.404       .  A
C2141      C2146   1.417       .  A
C2141      C2159   1.452       .  S
C2142      C2147   1.500       .  S
C2142      C2143   1.403       .  A
C2143      C2144   1.412       .  A
C2143      C2148   1.455       .  S
C2144      C2145   1.433       .  A
C2144      C2160   1.449       .  S
C2145      C2146   1.431       .  A
C2146      C2149   1.447       .  S
C2147      C2150   1.410       .  A
C2147      C2154   1.412       .  A
C2148      N2165   1.157       .  T
C2149      N2167   1.157       .  T
C2150      C2151   1.411       .  A
C2150      C2155   1.450       .  S
C2151      C2152   1.415       .  A
C2151      C2157   1.451       .  S
C2152      C2153   1.414       .  A
C2153      C2154   1.411       .  A
C2153      C2156   1.451       .  S
C2154      C2158   1.450       .  S
C2155      N2162   1.157       .  T
C2156      N2163   1.157       .  T
C2157      N2161   1.157       .  T
C2158      N2164   1.157       .  T
C2159      N2168   1.157       .  T
C2160      N2166   1.156       .  T
C2169      C2170   1.410       .  A
C2169      C2174   1.413       .  A
C2169      C2187   1.451       .  S
C2170      C2175   1.503       .  S
C2170      C2171   1.410       .  A
C2171      C2172   1.416       .  A
C2171      C2176   1.450       .  S
C2172      C2173   1.419       .  A
C2172      C2188   1.450       .  S
C2173      C2174   1.418       .  A
C2174      C2177   1.451       .  S
C2175      C2178   1.409       .  A
C2175      C2182   1.410       .  A
C2176      N2193   1.157       .  T
C2177      N2195   1.157       .  T
C2178      C2179   1.414       .  A
C2178      C2183   1.450       .  S
C2179      C2180   1.419       .  A
C2179      C2185   1.450       .  S
C2180      C2181   1.420       .  A
C2181      C2182   1.414       .  A
C2181      C2184   1.452       .  S
C2182      C2186   1.451       .  S
C2183      N2190   1.157       .  T
C2184      N2191   1.158       .  T
C2185      N2189   1.157       .  T
C2186      N2192   1.157       .  T
C2187      N2196   1.157       .  T
C2188      N2194   1.157       .  T
C2197      C2198   1.407       .  A
C2197      C2202   1.412       .  A
C2197      C2215   1.451       .  S
C2198      C2203   1.498       .  S
C2198      C2199   1.409       .  A
C2199      C2200   1.413       .  A
C2199      C2204   1.451       .  S
C2200      C2201   1.422       .  A
C2200      C2216   1.449       .  S
C2201      C2202   1.427       .  A
C2202      C2205   1.451       .  S
C2203      C2206   1.413       .  A
C2203      C2210   1.410       .  A
C2204      N2221   1.157       .  T
C2205      N2223   1.157       .  T
C2206      C2207   1.414       .  A
C2206      C2211   1.450       .  S
C2207      C2208   1.415       .  A
C2207      C2213   1.451       .  S
C2208      C2209   1.414       .  A
C2209      C2210   1.408       .  A
C2209      C2212   1.452       .  S
C2210      C2214   1.451       .  S
C2211      N2218   1.157       .  T
C2212      N2219   1.157       .  T
C2213      N2217   1.158       .  T
C2214      N2220   1.157       .  T
C2215      N2224   1.157       .  T
C2216      N2222   1.157       .  T
C2225      C2226   1.411       .  A
C2225      C2230   1.412       .  A
C2225      C2243   1.450       .  S
C2226      C2231   1.495       .  S
C2226      C2227   1.410       .  A
C2227      C2228   1.410       .  A
C2227      C2232   1.451       .  S
C2228      C2229   1.416       .  A
C2228      C2244   1.452       .  S
C2229      C2230   1.415       .  A
C2230      C2233   1.451       .  S
C2231      C2234   1.410       .  A
C2231      C2238   1.409       .  A
C2232      N2249   1.157       .  T
C2233      N2251   1.157       .  T
C2234      C2235   1.410       .  A
C2234      C2239   1.451       .  S
C2235      C2236   1.416       .  A
C2235      C2241   1.452       .  S
C2236      C2237   1.416       .  A
C2237      C2238   1.412       .  A
C2237      C2240   1.451       .  S
C2238      C2242   1.450       .  S
C2239      N2246   1.157       .  T
C2240      N2247   1.157       .  T
C2241      N2245   1.157       .  T
C2242      N2248   1.157       .  T
C2243      N2252   1.157       .  T
C2244      N2250   1.157       .  T
C2253      C2254   1.408       .  A
C2253      C2258   1.410       .  A
C2253      C2271   1.450       .  S
C2254      C2259   1.496       .  S
C2254      C2255   1.409       .  A
C2255      C2256   1.412       .  A
C2255      C2260   1.449       .  S
C2256      C2257   1.416       .  A
C2256      C2272   1.447       .  S
C2257      C2258   1.421       .  A
C2258      C2261   1.450       .  S
C2259      C2262   1.409       .  A
C2259      C2266   1.409       .  A
C2260      N2277   1.157       .  T
C2261      N2279   1.158       .  T
C2262      C2263   1.413       .  A
C2262      C2267   1.450       .  S
C2263      C2264   1.419       .  A
C2263      C2269   1.451       .  S
C2264      C2265   1.419       .  A
C2265      C2266   1.411       .  A
C2265      C2268   1.451       .  S
C2266      C2270   1.452       .  S
C2267      N2274   1.157       .  T
C2268      N2275   1.157       .  T
C2269      N2273   1.158       .  T
C2270      N2276   1.157       .  T
C2271      N2280   1.157       .  T
C2272      N2278   1.157       .  T
C2281      C2282   1.408       .  A
C2281      C2286   1.411       .  A
C2281      C2299   1.451       .  S
C2282      C2287   1.496       .  S
C2282      C2283   1.410       .  A
C2283      C2284   1.412       .  A
C2283      C2288   1.451       .  S
C2284      C2285   1.416       .  A
C2284      C2300   1.451       .  S
C2285      C2286   1.418       .  A
C2286      C2289   1.451       .  S
C2287      C2290   1.409       .  A
C2287      C2294   1.409       .  A
C2288      N2305   1.157       .  T
C2289      N2307   1.157       .  T
C2290      C2291   1.409       .  A
C2290      C2295   1.451       .  S
C2291      C2292   1.418       .  A
C2291      C2297   1.452       .  S
C2292      C2293   1.418       .  A
C2293      C2294   1.412       .  A
C2293      C2296   1.451       .  S
C2294      C2298   1.450       .  S
C2295      N2302   1.157       .  T
C2296      N2303   1.158       .  T
C2297      N2301   1.158       .  T
C2298      N2304   1.157       .  T
C2299      N2308   1.157       .  T
C2300      N2306   1.157       .  T
C2309      C2310   1.409       .  A
C2309      C2314   1.413       .  A
C2309      C2327   1.450       .  S
C2310      C2315   1.499       .  S
C2310      C2311   1.408       .  A
C2311      C2312   1.411       .  A
C2311      C2316   1.451       .  S
C2312      C2313   1.423       .  A
C2312      C2328   1.450       .  S
C2313      C2314   1.422       .  A
C2314      C2317   1.450       .  S
C2315      C2318   1.411       .  A
C2315      C2322   1.411       .  A
C2316      N2333   1.157       .  T
C2317      N2335   1.157       .  T
C2318      C2319   1.410       .  A
C2318      C2323   1.452       .  S
C2319      C2320   1.416       .  A
C2319      C2325   1.452       .  S
C2320      C2321   1.416       .  A
C2321      C2322   1.412       .  A
C2321      C2324   1.451       .  S
C2322      C2326   1.450       .  S
C2323      N2330   1.157       .  T
C2324      N2331   1.157       .  T
C2325      N2329   1.158       .  T
C2326      N2332   1.157       .  T
C2327      N2336   1.157       .  T
C2328      N2334   1.158       .  T
C2337      C2338   1.408       .  A
C2337      C2342   1.409       .  A
C2337      C2355   1.451       .  S
C2338      C2343   1.490       .  S
C2338      C2339   1.407       .  A
C2339      C2340   1.409       .  A
C2339      C2344   1.451       .  S
C2340      C2341   1.419       .  A
C2340      C2356   1.451       .  S
C2341      C2342   1.419       .  A
C2342      C2345   1.452       .  S
C2343      C2346   1.409       .  A
C2343      C2350   1.409       .  A
C2344      N2361   1.157       .  T
C2345      N2363   1.158       .  T
C2346      C2347   1.408       .  A
C2346      C2351   1.451       .  S
C2347      C2348   1.413       .  A
C2347      C2353   1.451       .  S
C2348      C2349   1.415       .  A
C2349      C2350   1.409       .  A
C2349      C2352   1.452       .  S
C2350      C2354   1.451       .  S
C2351      N2358   1.157       .  T
C2352      N2359   1.157       .  T
C2353      N2357   1.157       .  T
C2354      N2360   1.157       .  T
C2355      N2364   1.157       .  T
C2356      N2362   1.157       .  T
C2365      C2366   1.410       .  A
C2365      C2370   1.410       .  A
C2365      C2383   1.452       .  S
C2366      C2371   1.500       .  S
C2366      C2367   1.411       .  A
C2367      C2368   1.415       .  A
C2367      C2372   1.450       .  S
C2368      C2369   1.419       .  A
C2368      C2384   1.451       .  S
C2369      C2370   1.419       .  A
C2370      C2373   1.452       .  S
C2371      C2374   1.407       .  A
C2371      C2378   1.402       .  A
C2372      N2389   1.157       .  T
C2373      N2391   1.157       .  T
C2374      C2375   1.420       .  A
C2374      C2379   1.451       .  S
C2375      C2376   1.425       .  A
C2375      C2381   1.444       .  S
C2376      C2377   1.438       .  A
C2377      C2378   1.409       .  A
C2377      C2380   1.454       .  S
C2378      C2382   1.455       .  S
C2379      N2386   1.157       .  T
C2380      N2387   1.158       .  T
C2381      N2385   1.156       .  T
C2382      N2388   1.157       .  T
C2383      N2392   1.157       .  T
C2384      N2390   1.158       .  T
C2393      C2394   1.411       .  A
C2393      C2398   1.410       .  A
C2393      C2411   1.451       .  S
C2394      C2399   1.497       .  S
C2394      C2395   1.410       .  A
C2395      C2396   1.412       .  A
C2395      C2400   1.450       .  S
C2396      C2397   1.415       .  A
C2396      C2412   1.451       .  S
C2397      C2398   1.415       .  A
C2398      C2401   1.451       .  S
C2399      C2402   1.408       .  A
C2399      C2406   1.407       .  A
C2400      N2417   1.157       .  T
C2401      N2419   1.157       .  T
C2402      C2403   1.413       .  A
C2402      C2407   1.451       .  S
C2403      C2404   1.422       .  A
C2403      C2409   1.451       .  S
C2404      C2405   1.422       .  A
C2405      C2406   1.412       .  A
C2405      C2408   1.450       .  S
C2406      C2410   1.452       .  S
C2407      N2414   1.157       .  T
C2408      N2415   1.157       .  T
C2409      N2413   1.157       .  T
C2410      N2416   1.157       .  T
C2411      N2420   1.157       .  T
C2412      N2418   1.157       .  T
C2421      C2422   1.411       .  A
C2421      C2426   1.413       .  A
C2421      C2439   1.451       .  S
C2422      C2427   1.495       .  S
C2422      C2423   1.409       .  A
C2423      C2424   1.408       .  A
C2423      C2428   1.451       .  S
C2424      C2425   1.416       .  A
C2424      C2440   1.452       .  S
C2425      C2426   1.415       .  A
C2426      C2429   1.450       .  S
C2427      C2430   1.409       .  A
C2427      C2434   1.411       .  A
C2428      N2445   1.157       .  T
C2429      N2447   1.157       .  T
C2430      C2431   1.411       .  A
C2430      C2435   1.450       .  S
C2431      C2432   1.416       .  A
C2431      C2437   1.451       .  S
C2432      C2433   1.417       .  A
C2433      C2434   1.410       .  A
C2433      C2436   1.452       .  S
C2434      C2438   1.451       .  S
C2435      N2442   1.157       .  T
C2436      N2443   1.158       .  T
C2437      N2441   1.157       .  T
C2438      N2444   1.157       .  T
C2439      N2448   1.157       .  T
C2440      N2446   1.157       .  T
C2449      C2450   1.411       .  A
C2449      C2454   1.413       .  A
C2449      C2467   1.450       .  S
C2450      C2455   1.499       .  S
C2450      C2451   1.410       .  A
C2451      C2452   1.411       .  A
C2451      C2456   1.451       .  S
C2452      C2453   1.416       .  A
C2452      C2468   1.451       .  S
C2453      C2454   1.417       .  A
C2454      C2457   1.451       .  S
C2455      C2458   1.410       .  A
C2455      C2462   1.410       .  A
C2456      N2473   1.157       .  T
C2457      N2475   1.157       .  T
C2458      C2459   1.414       .  A
C2458      C2463   1.450       .  S
C2459      C2460   1.417       .  A
C2459      C2465   1.450       .  S
C2460      C2461   1.419       .  A
C2461      C2462   1.411       .  A
C2461      C2464   1.452       .  S
C2462      C2466   1.452       .  S
C2463      N2470   1.157       .  T
C2464      N2471   1.158       .  T
C2465      N2469   1.157       .  T
C2466      N2472   1.157       .  T
C2467      N2476   1.157       .  T
C2468      N2474   1.157       .  T
C2477      C2478   1.410       .  A
C2477      C2482   1.411   1_455  A
C2477      C2495   1.451       .  S
C2478      C2483   1.499       .  S
C2478      C2479   1.410       .  A
C2479      C2480   1.414   1_455  A
C2479      C2484   1.450       .  S
C2480      C2481   1.418       .  A
C2480      C2496   1.451       .  S
C2481      C2482   1.417       .  A
C2482      C2485   1.451       .  S
C2483      C2486   1.409       .  A
C2483      C2490   1.409       .  A
C2484      N2501   1.157       .  T
C2485      N2503   1.157       .  T
C2486      C2487   1.411       .  A
C2486      C2491   1.451       .  S
C2487      C2488   1.420       .  A
C2487      C2493   1.452       .  S
C2488      C2489   1.420       .  A
C2489      C2490   1.414       .  A
C2489      C2492   1.451       .  S
C2490      C2494   1.450       .  S
C2491      N2498   1.157       .  T
C2492      N2499   1.157       .  T
C2493      N2497   1.158       .  T
C2494      N2500   1.157       .  T
C2495      N2504   1.157       .  T
C2496      N2502   1.157       .  T
C2505      C2506   1.409       .  A
C2505      C2510   1.412       .  A
C2505      C2523   1.452       .  S
C2506      C2511   1.498       .  S
C2506      C2507   1.409       .  A
C2507      C2508   1.413       .  A
C2507      C2512   1.450       .  S
C2508      C2509   1.419       .  A
C2508      C2524   1.451       .  S
C2509      C2510   1.420       .  A
C2510      C2513   1.452       .  S
C2511      C2514   1.406       .  A
C2511      C2518   1.406       .  A
C2512      N2529   1.157       .  T
C2513      N2531   1.158       .  T
C2514      C2515   1.412       .  A
C2514      C2519   1.451       .  S
C2515      C2516   1.425       .  A
C2515      C2521   1.446       .  S
C2516      C2517   1.428       .  A
C2517      C2518   1.413       .  A
C2517      C2520   1.451       .  S
C2518      C2522   1.451       .  S
C2519      N2526   1.157       .  T
C2520      N2527   1.157       .  T
C2521      N2525   1.157       .  T
C2522      N2528   1.157       .  T
C2523      N2532   1.157       .  T
C2524      N2530   1.157       .  T
C2533      C2534   1.412       .  A
C2533      C2538   1.416       .  A
C2533      C2551   1.450       .  S
C2534      C2539   1.504       .  S
C2534      C2535   1.411       .  A
C2535      C2536   1.412       .  A
C2535      C2540   1.451       .  S
C2536      C2537   1.416       .  A
C2536      C2552   1.452       .  S
C2537      C2538   1.415       .  A
C2538      C2541   1.450       .  S
C2539      C2542   1.410       .  A
C2539      C2546   1.411       .  A
C2540      N2557   1.157       .  T
C2541      N2559   1.157       .  T
C2542      C2543   1.413       .  A
C2542      C2547   1.451       .  S
C2543      C2544   1.419       .  A
C2543      C2549   1.452       .  S
C2544      C2545   1.418       .  A
C2545      C2546   1.416       .  A
C2545      C2548   1.450       .  S
C2546      C2550   1.450       .  S
C2547      N2554   1.157       .  T
C2548      N2555   1.157       .  T
C2549      N2553   1.158       .  T
C2550      N2556   1.157       .  T
C2551      N2560   1.157       .  T
C2552      N2558   1.157       .  T
C2561      C2562   1.410       .  A
C2561      C2566   1.410   1_455  A
C2561      C2579   1.453       .  S
C2562      C2567   1.499       .  S
C2562      C2563   1.409       .  A
C2563      C2564   1.415   1_455  A
C2563      C2568   1.450       .  S
C2564      C2565   1.420       .  A
C2564      C2580   1.450       .  S
C2565      C2566   1.421       .  A
C2566      C2569   1.452       .  S
C2567      C2570   1.412       .  A
C2567      C2574   1.410       .  A
C2568      N2585   1.157       .  T
C2569      N2587   1.158       .  T
C2570      C2571   1.412       .  A
C2570      C2575   1.450       .  S
C2571      C2572   1.414       .  A
C2571      C2577   1.451       .  S
C2572      C2573   1.416       .  A
C2573      C2574   1.410       .  A
C2573      C2576   1.450       .  S
C2574      C2578   1.451       .  S
C2575      N2582   1.157       .  T
C2576      N2583   1.157       .  T
C2577      N2581   1.157       .  T
C2578      N2584   1.157       .  T
C2579      N2588   1.157       .  T
C2580      N2586   1.157       .  T
C2589      C2590   1.411       .  A
C2589      C2594   1.408       .  A
C2589      C2607   1.451       .  S
C2590      C2595   1.494       .  S
C2590      C2591   1.412       .  A
C2591      C2592   1.408       .  A
C2591      C2596   1.451       .  S
C2592      C2593   1.414       .  A
C2592      C2608   1.452       .  S
C2593      C2594   1.416       .  A
C2594      C2597   1.452       .  S
C2595      C2598   1.410       .  A
C2595      C2602   1.411       .  A
C2596      N2613   1.157       .  T
C2597      N2615   1.158       .  T
C2598      C2599   1.410       .  A
C2598      C2603   1.452       .  S
C2599      C2600   1.416       .  A
C2599      C2605   1.450       .  S
C2600      C2601   1.416       .  A
C2601      C2602   1.409       .  A
C2601      C2604   1.451       .  S
C2602      C2606   1.452       .  S
C2603      N2610   1.157       .  T
C2604      N2611   1.157       .  T
C2605      N2609   1.157       .  T
C2606      N2612   1.157       .  T
C2607      N2616   1.157       .  T
C2608      N2614   1.157       .  T
C2617      C2618   1.410       .  A
C2617      C2622   1.411       .  A
C2617      C2635   1.452       .  S
C2618      C2623   1.500       .  S
C2618      C2619   1.411       .  A
C2619      C2620   1.413       .  A
C2619      C2624   1.451       .  S
C2620      C2621   1.419       .  A
C2620      C2636   1.451       .  S
C2621      C2622   1.418       .  A
C2622      C2625   1.451       .  S
C2623      C2626   1.412       .  A
C2623      C2630   1.410   1_545  A
C2624      N2641   1.157       .  T
C2625      N2643   1.157       .  T
C2626      C2627   1.414   1_545  A
C2626      C2631   1.450       .  S
C2627      C2628   1.415       .  A
C2627      C2633   1.450       .  S
C2628      C2629   1.419       .  A
C2629      C2630   1.410       .  A
C2629      C2632   1.452       .  S
C2630      C2634   1.452   1_565  S
C2631      N2638   1.157       .  T
C2632      N2639   1.157       .  T
C2633      N2637   1.157       .  T
C2634      N2640   1.157       .  T
C2635      N2644   1.157       .  T
C2636      N2642   1.158       .  T
C2645      C2646   1.409       .  A
C2645      C2650   1.410       .  A
C2645      C2663   1.450       .  S
C2646      C2651   1.487       .  S
C2646      C2647   1.408       .  A
C2647      C2648   1.405       .  A
C2647      C2652   1.453       .  S
C2648      C2649   1.416       .  A
C2648      C2664   1.452       .  S
C2649      C2650   1.416       .  A
C2650      C2653   1.450       .  S
C2651      C2654   1.407       .  A
C2651      C2658   1.406       .  A
C2652      N2669   1.157       .  T
C2653      N2671   1.157       .  T
C2654      C2655   1.407       .  A
C2654      C2659   1.451       .  S
C2655      C2656   1.423       .  A
C2655      C2661   1.451       .  S
C2656      C2657   1.416       .  A
C2657      C2658   1.407       .  A
C2657      C2660   1.447       .  S
C2658      C2662   1.450       .  S
C2659      N2666   1.157       .  T
C2660      N2667   1.157       .  T
C2661      N2665   1.158       .  T
C2662      N2668   1.157       .  T
C2663      N2672   1.157       .  T
C2664      N2670   1.157       .  T
C2673      C2674   1.408       .  A
C2673      C2678   1.410       .  A
C2673      C2691   1.452       .  S
C2674      C2679   1.492       .  S
C2674      C2675   1.408       .  A
C2675      C2676   1.409       .  A
C2675      C2680   1.451       .  S
C2676      C2677   1.418       .  A
C2676      C2692   1.451       .  S
C2677      C2678   1.420       .  A
C2678      C2681   1.451       .  S
C2679      C2682   1.409       .  A
C2679      C2686   1.410       .  A
C2680      N2697   1.157       .  T
C2681      N2699   1.157       .  T
C2682      C2683   1.409       .  A
C2682      C2687   1.451       .  S
C2683      C2684   1.415       .  A
C2683      C2689   1.451       .  S
C2684      C2685   1.416       .  A
C2685      C2686   1.410       .  A
C2685      C2688   1.451       .  S
C2686      C2690   1.451       .  S
C2687      N2694   1.157       .  T
C2688      N2695   1.157       .  T
C2689      N2693   1.157       .  T
C2690      N2696   1.157       .  T
C2691      N2700   1.157       .  T
C2692      N2698   1.157       .  T
C2701      C2702   1.410       .  A
C2701      C2706   1.408       .  A
C2701      C2719   1.451       .  S
C2702      C2707   1.495       .  S
C2702      C2703   1.410       .  A
C2703      C2704   1.411       .  A
C2703      C2708   1.451       .  S
C2704      C2705   1.418       .  A
C2704      C2720   1.451       .  S
C2705      C2706   1.416       .  A
C2706      C2709   1.451       .  S
C2707      C2710   1.412       .  A
C2707      C2714   1.411       .  A
C2708      N2725   1.157       .  T
C2709      N2727   1.157       .  T
C2710      C2711   1.407       .  A
C2710      C2715   1.452       .  S
C2711      C2712   1.413       .  A
C2711      C2717   1.453       .  S
C2712      C2713   1.413       .  A
C2713      C2714   1.411       .  A
C2713      C2716   1.451       .  S
C2714      C2718   1.450       .  S
C2715      N2722   1.157       .  T
C2716      N2723   1.157       .  T
C2717      N2721   1.157       .  T
C2718      N2724   1.157       .  T
C2719      N2728   1.157       .  T
C2720      N2726   1.158       .  T
C2729      C2730   1.411       .  A
C2729      C2734   1.414       .  A
C2729      C2747   1.450       .  S
C2730      C2735   1.499       .  S
C2730      C2731   1.409       .  A
C2731      C2732   1.409       .  A
C2731      C2736   1.451       .  S
C2732      C2733   1.418       .  A
C2732      C2748   1.452       .  S
C2733      C2734   1.418       .  A
C2734      C2737   1.451       .  S
C2735      C2738   1.408       .  A
C2735      C2742   1.403       .  A
C2736      N2753   1.157       .  T
C2737      N2755   1.158       .  T
C2738      C2739   1.421       .  A
C2738      C2743   1.451       .  S
C2739      C2740   1.427       .  A
C2739      C2745   1.445       .  S
C2740      C2741   1.437       .  A
C2741      C2742   1.407       .  A
C2741      C2744   1.455       .  S
C2742      C2746   1.456       .  S
C2743      N2750   1.157       .  T
C2744      N2751   1.158       .  T
C2745      N2749   1.158       .  T
C2746      N2752   1.157       .  T
C2747      N2756   1.157       .  T
C2748      N2754   1.157       .  T
C2757      C2758   1.410       .  A
C2757      C2762   1.412       .  A
C2757      C2775   1.451       .  S
C2758      C2763   1.496       .  S
C2758      C2759   1.409       .  A
C2759      C2760   1.410       .  A
C2759      C2764   1.452       .  S
C2760      C2761   1.419       .  A
C2760      C2776   1.451       .  S
C2761      C2762   1.419       .  A
C2762      C2765   1.451       .  S
C2763      C2766   1.409       .  A
C2763      C2770   1.410       .  A
C2764      N2781   1.157       .  T
C2765      N2783   1.158       .  T
C2766      C2767   1.411       .  A
C2766      C2771   1.451       .  S
C2767      C2768   1.418       .  A
C2767      C2773   1.451       .  S
C2768      C2769   1.418       .  A
C2769      C2770   1.412       .  A
C2769      C2772   1.451       .  S
C2770      C2774   1.451       .  S
C2771      N2778   1.157       .  T
C2772      N2779   1.157       .  T
C2773      N2777   1.157       .  T
C2774      N2780   1.157       .  T
C2775      N2784   1.157       .  T
C2776      N2782   1.157       .  T
C2785      C2786   1.409   1_565  A
C2785      C2790   1.409       .  A
C2785      C2803   1.451   1_565  S
C2786      C2791   1.491       .  S
C2786      C2787   1.409   1_545  A
C2787      C2788   1.410       .  A
C2787      C2792   1.451   1_565  S
C2788      C2789   1.416       .  A
C2788      C2804   1.451       .  S
C2789      C2790   1.417       .  A
C2790      C2793   1.451       .  S
C2791      C2794   1.408       .  A
C2791      C2798   1.409       .  A
C2792      N2809   1.157       .  T
C2793      N2811   1.157       .  T
C2794      C2795   1.407       .  A
C2794      C2799   1.452       .  S
C2795      C2796   1.418       .  A
C2795      C2801   1.452       .  S
C2796      C2797   1.415       .  A
C2797      C2798   1.412       .  A
C2797      C2800   1.450       .  S
C2798      C2802   1.450       .  S
C2799      N2806   1.157       .  T
C2800      N2807   1.157       .  T
C2801      N2805   1.158       .  T
C2802      N2808   1.157       .  T
C2803      N2812   1.157       .  T
C2804      N2810   1.157       .  T
C2813      C2814   1.410       .  A
C2813      C2818   1.409       .  A
C2813      C2831   1.451       .  S
C2814      C2819   1.493       .  S
C2814      C2815   1.411       .  A
C2815      C2816   1.409       .  A
C2815      C2820   1.451       .  S
C2816      C2817   1.414       .  A
C2816      C2832   1.451       .  S
C2817      C2818   1.417       .  A
C2818      C2821   1.452       .  S
C2819      C2822   1.409       .  A
C2819      C2826   1.410       .  A
C2820      N2837   1.157       .  T
C2821      N2839   1.158       .  T
C2822      C2823   1.410       .  A
C2822      C2827   1.451       .  S
C2823      C2824   1.419       .  A
C2823      C2829   1.452       .  S
C2824      C2825   1.416       .  A
C2825      C2826   1.409       .  A
C2825      C2828   1.451       .  S
C2826      C2830   1.451       .  S
C2827      N2834   1.157       .  T
C2828      N2835   1.157       .  T
C2829      N2833   1.158       .  T
C2830      N2836   1.157       .  T
C2831      N2840   1.157       .  T
C2832      N2838   1.157       .  T
C2841      C2842   1.408       .  A
C2841      C2846   1.409       .  A
C2841      C2859   1.452       .  S
C2842      C2847   1.494       .  S
C2842      C2843   1.409       .  A
C2843      C2844   1.412       .  A
C2843      C2848   1.451       .  S
C2844      C2845   1.419       .  A
C2844      C2860   1.451       .  S
C2845      C2846   1.418       .  A
C2846      C2849   1.451       .  S
C2847      C2850   1.408       .  A
C2847      C2854   1.410       .  A
C2848      N2865   1.157       .  T
C2849      N2867   1.157       .  T
C2850      C2851   1.408       .  A
C2850      C2855   1.451       .  S
C2851      C2852   1.417       .  A
C2851      C2857   1.452       .  S
C2852      C2853   1.418       .  A
C2853      C2854   1.412       .  A
C2853      C2856   1.451       .  S
C2854      C2858   1.451       .  S
C2855      N2862   1.157       .  T
C2856      N2863   1.157       .  T
C2857      N2861   1.157       .  T
C2858      N2864   1.157       .  T
C2859      N2868   1.157       .  T
C2860      N2866   1.158       .  T
C2869      C2870   1.407       .  A
C2869      C2874   1.422       .  A
C2869      C2887   1.452       .  S
C2870      C2875   1.500       .  S
C2870      C2871   1.401       .  A
C2871      C2872   1.407       .  A
C2871      C2876   1.456       .  S
C2872      C2873   1.441       .  A
C2872      C2888   1.456       .  S
C2873      C2874   1.430       .  A
C2874      C2877   1.445       .  S
C2875      C2878   1.411       .  A
C2875      C2882   1.413       .  A
C2876      N2893   1.157       .  T
C2877      N2895   1.158       .  T
C2878      C2879   1.410       .  A
C2878      C2883   1.450       .  S
C2879      C2880   1.414       .  A
C2879      C2885   1.452       .  S
C2880      C2881   1.413       .  A
C2881      C2882   1.412       .  A
C2881      C2884   1.451       .  S
C2882      C2886   1.450       .  S
C2883      N2890   1.157       .  T
C2884      N2891   1.157       .  T
C2885      N2889   1.157       .  T
C2886      N2892   1.157       .  T
C2887      N2896   1.157       .  T
C2888      N2894   1.158       .  T
C2897      C2898   1.402       .  A
C2897      C2902   1.409       .  A
C2897      C2915   1.455       .  S
C2898      C2903   1.502       .  S
C2898      C2899   1.408       .  A
C2899      C2900   1.421       .  A
C2899      C2904   1.451       .  S
C2900      C2901   1.429       .  A
C2900      C2916   1.445       .  S
C2901      C2902   1.436       .  A
C2902      C2905   1.453       .  S
C2903      C2906   1.411       .  A
C2903      C2910   1.414       .  A
C2904      N2921   1.157       .  T
C2905      N2923   1.157       .  T
C2906      C2907   1.410       .  A
C2906      C2911   1.451       .  S
C2907      C2908   1.414       .  A
C2907      C2913   1.451       .  S
C2908      C2909   1.414       .  A
C2909      C2910   1.414       .  A
C2909      C2912   1.451       .  S
C2910      C2914   1.450       .  S
C2911      N2918   1.157       .  T
C2912      N2919   1.158       .  T
C2913      N2917   1.157       .  T
C2914      N2920   1.157       .  T
C2915      N2924   1.157       .  T
C2916      N2922   1.158       .  T
C2925      C2926   1.414       .  A
C2925      C2930   1.414       .  A
C2925      C2943   1.450       .  S
C2926      C2931   1.510       .  S
C2926      C2927   1.414       .  A
C2927      C2928   1.418       .  A
C2927      C2932   1.449       .  S
C2928      C2929   1.416       .  A
C2928      C2944   1.450       .  S
C2929      C2930   1.414       .  A
C2930      C2933   1.450       .  S
C2931      C2934   1.413       .  A
C2931      C2938   1.411       .  A
C2932      N2949   1.157       .  T
C2933      N2951   1.157       .  T
C2934      C2935   1.416       .  A
C2934      C2939   1.450       .  S
C2935      C2936   1.417       .  A
C2935      C2941   1.447       .  S
C2936      C2937   1.420       .  A
C2937      C2938   1.416       .  A
C2937      C2940   1.450       .  S
C2938      C2942   1.450       .  S
C2939      N2946   1.157       .  T
C2940      N2947   1.157       .  T
C2941      N2945   1.156       .  T
C2942      N2948   1.157       .  T
C2943      N2952   1.157       .  T
C2944      N2950   1.157       .  T
C2953      C2954   1.411       .  A
C2953      C2958   1.411       .  A
C2953      C2971   1.452       .  S
C2954      C2959   1.500       .  S
C2954      C2955   1.411       .  A
C2955      C2956   1.414       .  A
C2955      C2960   1.450       .  S
C2956      C2957   1.416       .  A
C2956      C2972   1.450       .  S
C2957      C2958   1.416       .  A
C2958      C2961   1.452       .  S
C2959      C2962   1.410       .  A
C2959      C2966   1.409       .  A
C2960      N2977   1.157       .  T
C2961      N2979   1.157       .  T
C2962      C2963   1.413       .  A
C2962      C2967   1.450       .  S
C2963      C2964   1.421       .  A
C2963      C2969   1.450       .  S
C2964      C2965   1.420       .  A
C2965      C2966   1.411       .  A
C2965      C2968   1.450       .  S
C2966      C2970   1.450       .  S
C2967      N2974   1.157       .  T
C2968      N2975   1.157       .  T
C2969      N2973   1.157       .  T
C2970      N2976   1.157       .  T
C2971      N2980   1.157       .  T
C2972      N2978   1.157       .  T
C2981      C2982   1.410       .  A
C2981      C2986   1.406       .  A
C2981      C2999   1.454       .  S
C2982      C2987   1.494       .  S
C2982      C2983   1.410       .  A
C2983      C2984   1.413       .  A
C2983      C2988   1.449       .  S
C2984      C2985   1.413       .  A
C2984      C3000   1.450       .  S
C2985      C2986   1.410       .  A
C2986      C2989   1.445       .  S
C2987      C2990   1.405       .  A
C2987      C2994   1.404       .  A
C2988      N3005   1.157       .  T
C2989      N3007   1.155       .  T
C2990      C2991   1.412       .  A
C2990      C2995   1.450       .  S
C2991      C2992   1.428       .  A
C2991      C2997   1.451       .  S
C2992      C2993   1.421       .  A
C2993      C2994   1.406       .  A
C2993      C2996   1.443       .  S
C2994      C2998   1.453       .  S
C2995      N3002   1.157       .  T
C2996      N3003   1.155       .  T
C2997      N3001   1.157       .  T
C2998      N3004   1.157       .  T
C2999      N3008   1.157       .  T
C3000      N3006   1.157       .  T
C3009      C3010   1.412       .  A
C3009      C3014   1.417       .  A
C3009      C3027   1.450       .  S
C3010      C3015   1.503       .  S
C3010      C3011   1.410       .  A
C3011      C3012   1.411       .  A
C3011      C3016   1.452       .  S
C3012      C3013   1.418       .  A
C3012      C3028   1.451       .  S
C3013      C3014   1.418       .  A
C3014      C3017   1.450       .  S
C3015      C3018   1.410       .  A
C3015      C3022   1.409       .  A
C3016      N3033   1.157       .  T
C3017      N3035   1.157       .  T
C3018      C3019   1.412       .  A
C3018      C3023   1.451       .  S
C3019      C3020   1.424       .  A
C3019      C3025   1.451       .  S
C3020      C3021   1.418       .  A
C3021      C3022   1.416       .  A
C3021      C3024   1.445       .  S
C3022      C3026   1.450       .  S
C3023      N3030   1.157       .  T
C3024      N3031   1.156       .  T
C3025      N3029   1.157       .  T
C3026      N3032   1.157       .  T
C3027      N3036   1.157       .  T
C3028      N3034   1.157       .  T
C3037      C3038   1.410       .  A
C3037      C3042   1.416       .  A
C3037      C3055   1.453       .  S
C3038      C3043   1.503       .  S
C3038      C3039   1.408       .  A
C3039      C3040   1.409       .  A
C3039      C3044   1.452       .  S
C3040      C3041   1.421       .  A
C3040      C3056   1.447       .  S
C3041      C3042   1.429       .  A
C3042      C3045   1.448       .  S
C3043      C3046   1.416       .  A
C3043      C3050   1.414       .  A
C3044      N3061   1.157       .  T
C3045      N3063   1.158       .  T
C3046      C3047   1.413       .  A
C3046      C3051   1.451       .  S
C3047      C3048   1.410       .  A
C3047      C3053   1.448       .  S
C3048      C3049   1.414       .  A
C3049      C3050   1.406       .  A
C3049      C3052   1.454       .  S
C3050      C3054   1.449       .  S
C3051      N3058   1.157       .  T
C3052      N3059   1.157       .  T
C3053      N3057   1.156       .  T
C3054      N3060   1.156       .  T
C3055      N3064   1.157       .  T
C3056      N3062   1.156       .  T
C3065      C3066   1.412       .  A
C3065      C3070   1.415       .  A
C3065      C3083   1.449       .  S
C3066      C3071   1.503       .  S
C3066      C3067   1.412       .  A
C3067      C3068   1.411       .  A
C3067      C3072   1.450       .  S
C3068      C3069   1.412       .  A
C3068      C3084   1.450       .  S
C3069      C3070   1.414       .  A
C3070      C3073   1.450       .  S
C3071      C3074   1.407       .  A
C3071      C3078   1.407       .  A
C3072      N3089   1.157       .  T
C3073      N3091   1.157       .  T
C3074      C3075   1.414       .  A
C3074      C3079   1.454       .  S
C3075      C3076   1.425       .  A
C3075      C3081   1.447       .  S
C3076      C3077   1.427       .  A
C3077      C3078   1.416       .  A
C3077      C3080   1.451       .  S
C3078      C3082   1.451       .  S
C3079      N3086   1.157       .  T
C3080      N3087   1.157       .  T
C3081      N3085   1.157       .  T
C3082      N3088   1.157       .  T
C3083      N3092   1.157       .  T
C3084      N3090   1.157       .  T
C3093      C3094   1.405       .  A
C3093      C3098   1.411       .  A
C3093      C3111   1.451       .  S
C3094      C3099   1.496       .  S
C3094      C3095   1.407       .  A
C3095      C3096   1.413       .  A
C3095      C3100   1.451       .  S
C3096      C3097   1.424       .  A
C3096      C3112   1.447       .  S
C3097      C3098   1.427       .  A
C3098      C3101   1.451       .  S
C3099      C3102   1.410       .  A
C3099      C3106   1.409       .  A
C3100      N3117   1.157       .  T
C3101      N3119   1.157       .  T
C3102      C3103   1.415       .  A
C3102      C3107   1.450       .  S
C3103      C3104   1.418       .  A
C3103      C3109   1.450       .  S
C3104      C3105   1.416       .  A
C3105      C3106   1.409       .  A
C3105      C3108   1.451       .  S
C3106      C3110   1.452       .  S
C3107      N3114   1.157       .  T
C3108      N3115   1.157       .  T
C3109      N3113   1.157       .  T
C3110      N3116   1.157       .  T
C3111      N3120   1.157       .  T
C3112      N3118   1.157       .  T
C3121      C3122   1.406       .  A
C3121      C3126   1.411       .  A
C3121      C3139   1.450       .  S
C3122      C3127   1.493       .  S
C3122      C3123   1.409       .  A
C3123      C3124   1.410       .  A
C3123      C3128   1.452       .  S
C3124      C3125   1.417       .  A
C3124      C3140   1.446       .  S
C3125      C3126   1.418       .  A
C3126      C3129   1.449       .  S
C3127      C3130   1.407       .  A
C3127      C3134   1.408       .  A
C3128      N3145   1.157       .  T
C3129      N3147   1.157       .  T
C3130      C3131   1.408       .  A
C3130      C3135   1.451       .  S
C3131      C3132   1.414       .  A
C3131      C3137   1.447       .  S
C3132      C3133   1.421       .  A
C3133      C3134   1.413       .  A
C3133      C3136   1.450       .  S
C3134      C3138   1.450       .  S
C3135      N3142   1.157       .  T
C3136      N3143   1.158       .  T
C3137      N3141   1.156       .  T
C3138      N3144   1.157       .  T
C3139      N3148   1.157       .  T
C3140      N3146   1.157       .  T
C3149      C3150   1.408       .  A
C3149      C3154   1.412       .  A
C3149      C3167   1.451       .  S
C3150      C3155   1.498       .  S
C3150      C3151   1.405       .  A
C3151      C3152   1.410       .  A
C3151      C3156   1.454       .  S
C3152      C3153   1.432       .  A
C3152      C3168   1.449       .  S
C3153      C3154   1.420       .  A
C3154      C3157   1.446       .  S
C3155      C3158   1.416       .  A
C3155      C3162   1.413       .  A
C3156      N3173   1.157       .  T
C3157      N3175   1.156       .  T
C3158      C3159   1.406       .  A
C3158      C3163   1.453       .  S
C3159      C3160   1.410       .  A
C3159      C3165   1.452       .  S
C3160      C3161   1.410       .  A
C3161      C3162   1.411       .  A
C3161      C3164   1.449       .  S
C3162      C3166   1.450       .  S
C3163      N3170   1.157       .  T
C3164      N3171   1.157       .  T
C3165      N3169   1.157       .  T
C3166      N3172   1.157       .  T
C3167      N3176   1.157       .  T
C3168      N3174   1.158       .  T
C3177      C3178   1.408       .  A
C3177      C3182   1.410       .  A
C3177      C3195   1.450       .  S
C3178      C3183   1.494       .  S
C3178      C3179   1.409       .  A
C3179      C3180   1.409       .  A
C3179      C3184   1.451       .  S
C3180      C3181   1.421       .  A
C3180      C3196   1.451       .  S
C3181      C3182   1.421       .  A
C3182      C3185   1.450       .  S
C3183      C3186   1.412       .  A
C3183      C3190   1.411       .  A
C3184      N3201   1.157       .  T
C3185      N3203   1.157       .  T
C3186      C3187   1.409       .  A
C3186      C3191   1.452       .  S
C3187      C3188   1.415       .  A
C3187      C3193   1.452       .  S
C3188      C3189   1.413       .  A
C3189      C3190   1.410       .  A
C3189      C3192   1.451       .  S
C3190      C3194   1.450       .  S
C3191      N3198   1.157       .  T
C3192      N3199   1.157       .  T
C3193      N3197   1.158       .  T
C3194      N3200   1.157       .  T
C3195      N3204   1.157       .  T
C3196      N3202   1.157       .  T
C3205      C3206   1.408       .  A
C3205      C3210   1.413       .  A
C3205      C3223   1.451       .  S
C3206      C3211   1.497       .  S
C3206      C3207   1.406       .  A
C3207      C3208   1.410       .  A
C3207      C3212   1.452       .  S
C3208      C3209   1.416       .  A
C3208      C3224   1.444       .  S
C3209      C3210   1.421       .  A
C3210      C3213   1.448       .  S
C3211      C3214   1.403       .  A
C3211      C3218   1.404       .  A
C3212      N3229   1.157       .  T
C3213      N3231   1.157       .  T
C3214      C3215   1.413       .  A
C3214      C3219   1.455       .  S
C3215      C3216   1.432       .  A
C3215      C3221   1.446       .  S
C3216      C3217   1.425       .  A
C3217      C3218   1.414       .  A
C3217      C3220   1.447       .  S
C3218      C3222   1.452       .  S
C3219      N3226   1.157       .  T
C3220      N3227   1.156       .  T
C3221      N3225   1.157       .  T
C3222      N3228   1.157       .  T
C3223      N3232   1.157       .  T
C3224      N3230   1.155       .  T
C3233      C3234   1.403       .  A
C3233      C3238   1.411       .  A
C3233      C3251   1.454       .  S
C3234      C3239   1.496       .  S
C3234      C3235   1.405       .  A
C3235      C3236   1.414       .  A
C3235      C3240   1.454       .  S
C3236      C3237   1.427       .  A
C3236      C3252   1.447       .  S
C3237      C3238   1.434       .  A
C3238      C3241   1.451       .  S
C3239      C3242   1.413       .  A
C3239      C3246   1.412       .  A
C3240      N3257   1.157       .  T
C3241      N3259   1.158       .  T
C3242      C3243   1.411       .  A
C3242      C3247   1.449       .  S
C3243      C3244   1.409       .  A
C3243      C3249   1.450       .  S
C3244      C3245   1.407       .  A
C3245      C3246   1.406       .  A
C3245      C3248   1.445       .  S
C3246      C3250   1.452       .  S
C3247      N3254   1.157       .  T
C3248      N3255   1.155       .  T
C3249      N3253   1.157       .  T
C3250      N3256   1.157       .  T
C3251      N3260   1.157       .  T
C3252      N3258   1.157       .  T
C3261      C3262   1.413       .  A
C3261      C3266   1.409       .  A
C3261      C3279   1.449       .  S
C3262      C3267   1.499       .  S
C3262      C3263   1.413       .  A
C3263      C3264   1.412       .  A
C3263      C3268   1.449       .  S
C3264      C3265   1.410       .  A
C3264      C3280   1.451       .  S
C3265      C3266   1.406       .  A
C3266      C3269   1.450       .  S
C3267      C3270   1.408       .  A
C3267      C3274   1.409       .  A
C3268      N3285   1.157       .  T
C3269      N3287   1.157       .  T
C3270      C3271   1.414       .  A
C3270      C3275   1.451       .  S
C3271      C3272   1.423       .  A
C3271      C3277   1.449       .  S
C3272      C3273   1.420       .  A
C3273      C3274   1.410       .  A
C3273      C3276   1.450       .  S
C3274      C3278   1.452       .  S
C3275      N3282   1.157       .  T
C3276      N3283   1.157       .  T
C3277      N3281   1.157       .  T
C3278      N3284   1.157       .  T
C3279      N3288   1.157       .  T
C3280      N3286   1.157       .  T
