geometry optimzed in LAMMPS
_audit_creation_date              2020-12-01 
_audit_creation_method            'lammps2cif' 
_symmetry_space_group_name_H-M    'P1' 
_symmetry_Int_Tables_number       1 
_symmetry_cell_setting            triclinic 
loop_ 
_symmetry_equiv_pos_as_xyz 
  x,y,z 
_cell_length_a                    30.28708932 
_cell_length_b                    18.643782033595233 
_cell_length_c                    25.223561321587624 
_cell_angle_alpha                 90.53985647304131 
_cell_angle_beta                  90.01634677676886 
_cell_angle_gamma                 87.86063663681362 
loop_ 
_atom_site_label 
_atom_site_type_symbol 
_atom_site_fract_x 
_atom_site_fract_y 
_atom_site_fract_z 
_atom_site_charge 
C1          C  0.68498366  0.27473278  0.25157486    -0.03100
C2          C  0.81168164  0.51814528  0.24986096    -0.03100
C3          C  0.31411669  0.21751285  0.24979240    -0.03100
C4          C  0.18616986  0.47500842  0.25022442    -0.03100
O5          O  0.95657994  0.06166409  0.44663946    -0.75000
O6          O  0.04407840  0.05185254  0.05597204    -0.75100
O7          O  0.04618313  0.05162454  0.44750605    -0.75100
O8          O  0.95450719  0.06124967  0.05455929    -0.75200
O9          O  0.95240113  0.44178404  0.05295237    -0.75100
O10         O  0.04292986  0.43147267  0.44641369    -0.75100
O11         O  0.04188023  0.43185167  0.05376715    -0.75100
O12         O  0.95332349  0.44205850  0.44500328    -0.75100
Ni13       Ni  0.00109814  0.06085440  0.50077739     1.25400
Ni14       Ni  0.99743218  0.43316279  0.99956332     1.25400
C15         C  0.93976449  0.50342343  0.42769847     0.87100
C16         C  0.05795480  0.48956217  0.07222907     0.87100
C17         C  0.06012275  0.99032059  0.42969608     0.87100
C18         C  0.93860095  0.00286634  0.07121185     0.87300
O19         O  0.46080617  0.19069233  0.05445351    -0.75000
O20         O  0.54829129  0.20423342  0.44705407    -0.75100
O21         O  0.54903261  0.20450313  0.05331529    -0.75100
O22         O  0.45952354  0.18995880  0.44749804    -0.75200
O23         O  0.44968756  0.30876775  0.44780992    -0.75100
O24         O  0.53972033  0.32369199  0.05509121    -0.75100
O25         O  0.53864720  0.32327622  0.44762537    -0.75100
O26         O  0.45103988  0.30963335  0.05651993    -0.75100
Ni27       Ni  0.50470205  0.19409047  0.00001275     1.25400
Ni28       Ni  0.49411218  0.32064977  0.50151029     1.25400
C29         C  0.44218874  0.24765733  0.07434279     0.87100
C30         C  0.55859393  0.26602247  0.43015884     0.87100
C31         C  0.55906491  0.26594595  0.07191884     0.87100
C32         C  0.43976822  0.24680841  0.42983212     0.87300
C33         C  0.15514034  0.97633360  0.30037772    -0.05900
C34         C  0.15653946  0.03178484  0.33925188    -0.17900
C35         C  0.12764322  0.03607407  0.38271954     0.10500
C36         C  0.09428179  0.98588682  0.38744302    -0.06700
C37         C  0.09192140  0.42935907  0.34981128    -0.17900
C38         C  0.12147433  0.42342874  0.30703699     0.10500
S39         S  0.13472712  0.10541205  0.43233436    -0.32900
S40         S  0.11509862  0.34769489  0.26247115    -0.32900
H41         H  0.08844747  0.30684288  0.29537875     0.28500
H42         H  0.17592725  0.12814494  0.41461340     0.28500
H43         H  0.17905414  0.07467973  0.33526868     0.19100
H44         H  0.06618774  0.39092138  0.35337344     0.19100
C45         C  0.15315161  0.48052897  0.20176022    -0.06700
C46         C  0.15116458  0.42437955  0.16351651    -0.17900
C47         C  0.12230921  0.42710565  0.12024632     0.10500
C48         C  0.09191219  0.48566656  0.11480367    -0.06700
C49         C  0.09244902  0.04200433  0.15311948    -0.17900
C50         C  0.12203798  0.04051507  0.19605864     0.10500
S51         S  0.12733786  0.35456462  0.07253988    -0.32900
S52         S  0.11908165  0.11645221  0.24154969    -0.32900
H53         H  0.08411822  0.15573358  0.21747236     0.28500
H54         H  0.12249202  0.39925399  0.02808065     0.28500
H55         H  0.17167681  0.37612606  0.16694445     0.19100
H56         H  0.06877264  0.08658414  0.14932989     0.19100
C57         C  0.28011984  0.28403844  0.24960572    -0.06700
C58         C  0.27911419  0.33424899  0.20793721    -0.17900
C59         C  0.24928299  0.39345434  0.20616433     0.10500
C60         C  0.21738397  0.40542792  0.24731560    -0.06700
C61         C  0.21802374  0.35465989  0.28859415    -0.17900
C62         C  0.24728217  0.29478303  0.28984988     0.10500
S63         S  0.25214453  0.45004501  0.14834013    -0.32900
S64         S  0.24330199  0.23698361  0.34686681    -0.32900
H65         H  0.19896350  0.25476376  0.35959589     0.28500
H66         H  0.29431269  0.42673835  0.13043084     0.28500
H67         H  0.29997275  0.32566012  0.17383406     0.19100
H68         H  0.19720477  0.36298435  0.32278261     0.19100
C69         C  0.28322565  0.15181628  0.24781236    -0.06700
C70         C  0.28308611  0.10126850  0.28906742    -0.17900
C71         C  0.25348990  0.04511863  0.29086520     0.10500
C72         C  0.21981273  0.03895111  0.25147073    -0.06700
C73         C  0.22048235  0.08910623  0.20988564    -0.17900
C74         C  0.25042435  0.14439245  0.20753513     0.10500
S75         S  0.25913729  0.98498233  0.34654511    -0.32900
S76         S  0.24771910  0.19979250  0.14884284    -0.32900
H77         H  0.20393735  0.18622631  0.13429331     0.28500
H78         H  0.30360379  0.99807461  0.35806092     0.28500
H79         H  0.30480014  0.10701888  0.32248607     0.19100
H80         H  0.19902088  0.08354034  0.17627420     0.19100
C81         C  0.40612487  0.23971196  0.38699216    -0.06700
C82         C  0.40829423  0.17815662  0.35468339    -0.17900
C83         C  0.37901579  0.16812064  0.31223446     0.10500
C84         C  0.34501928  0.22121504  0.30062747    -0.06700
C85         C  0.34441510  0.28398004  0.33335032    -0.17900
C86         C  0.37287150  0.29246566  0.37664680     0.10500
S87         S  0.38833910  0.08758834  0.27293190    -0.32900
S88         S  0.36525843  0.37158070  0.41804812    -0.32900
H89         H  0.32003583  0.38268857  0.40689451     0.28500
H90         H  0.41418848  0.04850639  0.30981374     0.28500
H91         H  0.43434626  0.13806829  0.36174021     0.19100
H92         H  0.32278053  0.32952463  0.32485176     0.19100
C93         C  0.41005121  0.24063177  0.11837060    -0.06700
C94         C  0.38598662  0.17818535  0.12057164    -0.17900
C95         C  0.35596429  0.16546570  0.16153334     0.10500
C96         C  0.34773924  0.21938338  0.20197572    -0.06700
C97         C  0.37470783  0.28009083  0.20044060    -0.17900
C98         C  0.40484071  0.29176177  0.15953864     0.10500
S99         S  0.33490596  0.07578378  0.16153142    -0.32900
S100        S  0.43800565  0.37043670  0.16255814    -0.32900
H101        H  0.41657042  0.40433516  0.20602232     0.28500
H102        H  0.33994325  0.06059715  0.10708287     0.28500
H103        H  0.39178649  0.13754332  0.09017837     0.19100
H104        H  0.37113773  0.32031914  0.23145462     0.19100
C105        C  0.84371777  0.51802864  0.29937214    -0.06700
C106        C  0.84233230  0.46327472  0.33805572    -0.17900
C107        C  0.87179816  0.45865342  0.38082272     0.10500
C108        C  0.90571108  0.50793795  0.38530582    -0.06700
C109        C  0.90829175  0.06262059  0.34910141    -0.17900
C110        C  0.87847972  0.06817590  0.30659629     0.10500
S111        S  0.86473507  0.38974034  0.42981828    -0.32900
S112        S  0.88558500  0.14143466  0.26095307    -0.32900
H113        H  0.91530523  0.18062551  0.29155612     0.28500
H114        H  0.82213119  0.37051087  0.41424198     0.28500
H115        H  0.81947381  0.42076037  0.33439886     0.19100
H116        H  0.93444597  0.10041257  0.35246993     0.19100
C117        C  0.90470920  0.00531731  0.11348090    -0.06700
C118        C  0.90505208  0.45208406  0.15125584    -0.17900
C119        C  0.87578213  0.45380212  0.19431139     0.10500
C120        C  0.84377835  0.51196878  0.20063749    -0.06700
C121        C  0.84405488  0.06370076  0.16189581    -0.17900
C122        C  0.87201529  0.06055510  0.11781798     0.10500
S123        S  0.88090720  0.37922670  0.23951019    -0.32900
S124        S  0.86328231  0.12818095  0.06780520    -0.32900
H125        H  0.87216965  0.08131094  0.02471838     0.28500
H126        H  0.89374716  0.32775509  0.20076078     0.28500
H127        H  0.92977549  0.40870780  0.14819919     0.19100
H128        H  0.82211317  0.11037022  0.16446832     0.19100
C129        C  0.78138978  0.08650387  0.24845259    -0.06700
C130        C  0.78239405  0.13972506  0.28865632    -0.17900
C131        C  0.75329098  0.19981829  0.29036485     0.10500
C132        C  0.71854044  0.20781087  0.25224367    -0.06700
C133        C  0.71820580  0.15549227  0.21132193    -0.17900
C134        C  0.74771068  0.09602596  0.20909353     0.10500
S135        S  0.76082338  0.26219709  0.34489385    -0.32900
S136        S  0.74145910  0.03571087  0.15298753    -0.32900
H137        H  0.69676361  0.05306179  0.14213534     0.28500
H138        H  0.80599594  0.24580873  0.35346738     0.28500
H139        H  0.80457777  0.13356755  0.32170734     0.19100
H140        H  0.69550450  0.16136836  0.17874402     0.19100
C141        C  0.71603530  0.34064772  0.24871755    -0.06700
C142        C  0.71566998  0.39348020  0.28940138    -0.17900
C143        C  0.74523671  0.44965281  0.29111896     0.10500
C144        C  0.77873452  0.45453606  0.25151492    -0.06700
C145        C  0.77855083  0.40235658  0.21056440    -0.17900
C146        C  0.74923530  0.34628204  0.20888689     0.10500
S147        S  0.73979740  0.51239526  0.34639369    -0.32900
S148        S  0.75520530  0.28524839  0.15276850    -0.32900
H149        H  0.80059903  0.29424891  0.14424819     0.28500
H150        H  0.70139490  0.48644182  0.36958211     0.28500
H151        H  0.69287776  0.39028558  0.32186953     0.19100
H152        H  0.80004500  0.40636219  0.17690254     0.19100
C153        C  0.65403318  0.27843667  0.30197615    -0.06700
C154        C  0.65827665  0.22537499  0.34197615    -0.17900
C155        C  0.62961926  0.22256460  0.38519091     0.10500
C156        C  0.59330356  0.27154153  0.38909261    -0.06700
C157        C  0.58851012  0.32524553  0.35103329    -0.17900
C158        C  0.61758854  0.32985481  0.30806576     0.10500
S159        S  0.64190196  0.15494214  0.43431471    -0.32900
S160        S  0.60122906  0.39946615  0.26157316    -0.32900
H161        H  0.64255913  0.41976984  0.24451642     0.28500
H162        H  0.63007706  0.19940196  0.47784299     0.28500
H163        H  0.68289882  0.18243851  0.33970855     0.19100
H164        H  0.56047475  0.36301310  0.35368342     0.19100
C165        C  0.65205849  0.27103434  0.20316830    -0.06700
C166        C  0.65218500  0.32347034  0.16255594    -0.17900
C167        C  0.62367569  0.32216115  0.11887033     0.10500
C168        C  0.59211210  0.26895620  0.11505900    -0.06700
C169        C  0.59025552  0.21797871  0.15507763    -0.17900
C170        C  0.61870634  0.21812409  0.19875743     0.10500
S171        S  0.63018654  0.38921419  0.06867263    -0.32900
S172        S  0.60611317  0.15121098  0.24759951    -0.32900
H173        H  0.64882052  0.12791288  0.26111502     0.28500
H174        H  0.62167946  0.34309769  0.02567947     0.28500
H175        H  0.67403015  0.36771570  0.16423221     0.19100
H176        H  0.56515776  0.17803117  0.15299672     0.19100
C177        C  0.68487388  0.27684512  0.75106724    -0.03100
C178        C  0.81183579  0.51977455  0.74985155    -0.03100
C179        C  0.31321835  0.22203014  0.74984327    -0.03100
C180        C  0.18554412  0.47957014  0.75040203    -0.03100
O181        O  0.95563614  0.06255784  0.94714812    -0.75000
O182        O  0.04533585  0.05160471  0.55484962    -0.75100
O183        O  0.04516700  0.05320142  0.94858722    -0.75100
O184        O  0.95596361  0.06158642  0.55408816    -0.75200
O185        O  0.95211354  0.44168771  0.55248544    -0.75100
O186        O  0.04268516  0.43316123  0.94628433    -0.75100
O187        O  0.04156837  0.43120100  0.55398609    -0.75100
O188        O  0.95305269  0.44279637  0.94551743    -0.75100
Ni189      Ni  0.99991150  0.06146080  0.00163244     1.25400
Ni190      Ni  0.99739830  0.43236046  0.49940323     1.25400
C191        C  0.93922335  0.50416806  0.92852896     0.87100
C192        C  0.05756059  0.48908654  0.57228797     0.87100
C193        C  0.05923419  0.99224746  0.93028680     0.87100
C194        C  0.93972992  0.00365624  0.57113136     0.87300
O195        O  0.46019544  0.19095897  0.55506221    -0.75000
O196        O  0.54827885  0.20609311  0.94609305    -0.75100
O197        O  0.54850698  0.20427815  0.55420033    -0.75100
O198        O  0.45951202  0.19167729  0.94681606    -0.75200
O199        O  0.44963193  0.31040485  0.94835966    -0.75100
O200        O  0.53928237  0.32349463  0.55497270    -0.75100
O201        O  0.53854875  0.32513132  0.94762634    -0.75100
O202        O  0.45056678  0.30995862  0.55587975    -0.75100
Ni203      Ni  0.50441804  0.19319387  0.50084595     1.25400
Ni204      Ni  0.49429196  0.32148963  0.00187824     1.25400
C205        C  0.44151280  0.24836998  0.57419939     0.87100
C206        C  0.55844729  0.26813324  0.92960579     0.87100
C207        C  0.55857454  0.26595907  0.57225339     0.87100
C208        C  0.43967837  0.24882948  0.92971183     0.87300
C209        C  0.15426295  0.98004475  0.80098614    -0.05900
C210        C  0.15475347  0.03631656  0.83927511    -0.17900
C211        C  0.12585876  0.04022548  0.88273180     0.10500
C212        C  0.09339192  0.98860319  0.88802975    -0.06700
C213        C  0.09210994  0.43155491  0.85031843    -0.17900
C214        C  0.12151611  0.42639781  0.80741663     0.10500
S215        S  0.13188274  0.11082294  0.93166700    -0.32900
S216        S  0.11610363  0.34980295  0.76344854    -0.32900
H217        H  0.09255434  0.30674598  0.79823685     0.28500
H218        H  0.17048648  0.13955546  0.91097960     0.28500
H219        H  0.17665603  0.07997140  0.83485702     0.19100
H220        H  0.06717593  0.39182988  0.85434669     0.19100
C221        C  0.15269774  0.48382301  0.70176661    -0.06700
C222        C  0.15095103  0.42677116  0.66417810    -0.17900
C223        C  0.12202257  0.42810797  0.62097943     0.10500
C224        C  0.09122069  0.48596045  0.61511309    -0.06700
C225        C  0.09231626  0.04324496  0.65254024    -0.17900
C226        C  0.12149492  0.04274868  0.69577003     0.10500
S227        S  0.12737374  0.35472259  0.57402419    -0.32900
S228        S  0.11726170  0.11906788  0.74070585    -0.32900
H229        H  0.09447617  0.16661973  0.70640047     0.28500
H230        H  0.12231260  0.39851465  0.52910843     0.28500
H231        H  0.17169126  0.37885310  0.66807980     0.19100
H232        H  0.06831258  0.08735837  0.64847954     0.19100
C233        C  0.27974431  0.28912192  0.74996786    -0.06700
C234        C  0.27868283  0.33920796  0.70821443    -0.17900
C235        C  0.24897083  0.39856256  0.70659014     0.10500
C236        C  0.21725357  0.41065798  0.74791977    -0.06700
C237        C  0.21833275  0.36051153  0.78956458    -0.17900
C238        C  0.24747665  0.30060460  0.79074826     0.10500
S239        S  0.25143142  0.45480035  0.64853882    -0.32900
S240        S  0.24392784  0.24365623  0.84824804    -0.32900
H241        H  0.19917633  0.25982244  0.85987583     0.28500
H242        H  0.29335881  0.43105223  0.63011045     0.28500
H243        H  0.29926446  0.33028599  0.67390960     0.19100
H244        H  0.19785090  0.36924851  0.82402740     0.19100
C245        C  0.28173976  0.15700728  0.74847262    -0.06700
C246        C  0.28147273  0.10692287  0.79000767    -0.17900
C247        C  0.25193943  0.05072138  0.79202274     0.10500
C248        C  0.21859650  0.04368999  0.75231852    -0.06700
C249        C  0.21901528  0.09391393  0.71077389    -0.17900
C250        C  0.24858113  0.14975919  0.70860309     0.10500
S251        S  0.25724916  0.99162851  0.84835847    -0.32900
S252        S  0.24490286  0.20570722  0.65034964    -0.32900
H253        H  0.19951496  0.19773181  0.64094111     0.28500
H254        H  0.30120896  0.00644876  0.86120678     0.28500
H255        H  0.30307008  0.11312051  0.82344548     0.19100
H256        H  0.19767878  0.08817798  0.67703854     0.19100
C257        C  0.40594405  0.24265045  0.88670285    -0.06700
C258        C  0.40690498  0.18034078  0.85509979    -0.17900
C259        C  0.37792976  0.17136921  0.81213593     0.10500
C260        C  0.34456544  0.22540131  0.80033384    -0.06700
C261        C  0.34521574  0.28887371  0.83218938    -0.17900
C262        C  0.37399490  0.29716786  0.87521689     0.10500
S263        S  0.38594390  0.09023528  0.77304029    -0.32900
S264        S  0.36863444  0.37863061  0.91452455    -0.32900
H265        H  0.32440701  0.39514480  0.90107804     0.28500
H266        H  0.42544866  0.06402678  0.79633150     0.28500
H267        H  0.43157232  0.13851884  0.86343558     0.19100
H268        H  0.32442591  0.33514810  0.82293485     0.19100
C269        C  0.40910760  0.24243073  0.61801622    -0.06700
C270        C  0.38425545  0.18087355  0.62012667    -0.17900
C271        C  0.35440082  0.16869962  0.66141516     0.10500
C272        C  0.34650333  0.22310504  0.70161772    -0.06700
C273        C  0.37390244  0.28328121  0.69977329    -0.17900
C274        C  0.40427104  0.29390033  0.65896851     0.10500
S275        S  0.33185640  0.08002250  0.66146814    -0.32900
S276        S  0.43813319  0.37176589  0.66179987    -0.32900
H277        H  0.41574878  0.40769690  0.70372319     0.28500
H278        H  0.35730962  0.04770474  0.62054250     0.28500
H279        H  0.38893299  0.14102700  0.58896045     0.19100
H280        H  0.37065959  0.32382629  0.73058308     0.19100
C281        C  0.84364219  0.51913677  0.79958447    -0.06700
C282        C  0.84214249  0.46401852  0.83800281    -0.17900
C283        C  0.87156604  0.45897198  0.88087677     0.10500
C284        C  0.90522065  0.50868744  0.88601349    -0.06700
C285        C  0.90852674  0.06354463  0.84855028    -0.17900
C286        C  0.87882368  0.06971685  0.80594856     0.10500
S287        S  0.86492495  0.38888096  0.92906998    -0.32900
S288        S  0.88625582  0.14362382  0.76103683    -0.32900
H289        H  0.91493111  0.18315511  0.79286961     0.28500
H290        H  0.82332542  0.36696019  0.91183613     0.28500
H291        H  0.81926200  0.42158325  0.83394112     0.19100
H292        H  0.93496216  0.10081874  0.85203313     0.19100
C293        C  0.90563609  0.00708487  0.61336411    -0.06700
C294        C  0.90471614  0.45234388  0.65067744    -0.17900
C295        C  0.87571456  0.45443361  0.69413983     0.10500
C296        C  0.84413335  0.51327648  0.70073866    -0.06700
C297        C  0.84596768  0.06796872  0.66216730    -0.17900
C298        C  0.87450349  0.06467806  0.61864169     0.10500
S299        S  0.88002276  0.37967260  0.73954465    -0.32900
S300        S  0.86832618  0.13526509  0.57046894    -0.32900
H301        H  0.87481265  0.08942656  0.52626184     0.28500
H302        H  0.90800892  0.33396587  0.70885647     0.28500
H303        H  0.92899516  0.40850425  0.64685499     0.19100
H304        H  0.82496753  0.11574741  0.66553121     0.19100
C305        C  0.78180504  0.08934598  0.74747616    -0.06700
C306        C  0.78262327  0.14214246  0.78799948    -0.17900
C307        C  0.75335816  0.20212379  0.78994187     0.10500
C308        C  0.71870804  0.21020541  0.75165512    -0.06700
C309        C  0.71879170  0.15840212  0.71030382    -0.17900
C310        C  0.74860195  0.09938354  0.70772176     0.10500
S311        S  0.76047298  0.26460667  0.84460487    -0.32900
S312        S  0.74339362  0.04001575  0.65087633    -0.32900
H313        H  0.69919773  0.05845604  0.63816982     0.28500
H314        H  0.80311804  0.24099434  0.86029224     0.28500
H315        H  0.80481070  0.13550783  0.82098375     0.19100
H316        H  0.69624501  0.16449473  0.67758266     0.19100
C317        C  0.71565884  0.34304049  0.74802814    -0.06700
C318        C  0.71531630  0.39578097  0.78877681    -0.17900
C319        C  0.74493528  0.45184577  0.79054482     0.10500
C320        C  0.77856284  0.45661586  0.75112366    -0.06700
C321        C  0.77804875  0.40500908  0.70981092    -0.17900
C322        C  0.74866303  0.34903730  0.70797762     0.10500
S323        S  0.73948453  0.51397514  0.84607159    -0.32900
S324        S  0.75434717  0.28853399  0.65148655    -0.32900
H325        H  0.79928920  0.29932793  0.64122491     0.28500
H326        H  0.69584689  0.49910201  0.86018035     0.28500
H327        H  0.69273808  0.39245367  0.82151739     0.19100
H328        H  0.79941209  0.40938909  0.67606717     0.19100
C329        C  0.65382838  0.28066126  0.80140392    -0.06700
C330        C  0.65828710  0.22811633  0.84170429    -0.17900
C331        C  0.62973815  0.22568493  0.88504145     0.10500
C332        C  0.59308315  0.27402131  0.88851502    -0.06700
C333        C  0.58790591  0.32703895  0.85001628    -0.17900
C334        C  0.61710261  0.33168573  0.80714379     0.10500
S335        S  0.64266153  0.15954714  0.93503823    -0.32900
S336        S  0.60054178  0.40066131  0.76025611    -0.32900
H337        H  0.64192411  0.42231144  0.74436453     0.28500
H338        H  0.63016170  0.20459335  0.97799310     0.28500
H339        H  0.68307121  0.18543492  0.83966828     0.19100
H340        H  0.55957081  0.36424942  0.85233108     0.19100
C341        C  0.65192641  0.27253911  0.70282109    -0.06700
C342        C  0.65162185  0.32494446  0.66219400    -0.17900
C343        C  0.62306240  0.32302657  0.61862576     0.10500
C344        C  0.59171054  0.26947801  0.61517241    -0.06700
C345        C  0.59029847  0.21845775  0.65519975    -0.17900
C346        C  0.61896458  0.21897205  0.69862539     0.10500
S347        S  0.62930431  0.38963448  0.56804451    -0.32900
S348        S  0.60715979  0.15156697  0.74743778    -0.32900
H349        H  0.65005043  0.12953580  0.76114386     0.28500
H350        H  0.62112055  0.34285447  0.52533474     0.28500
H351        H  0.67315821  0.36961016  0.66377579     0.19100
H352        H  0.56543313  0.17810637  0.65329628     0.19100
C353        C  0.68442456  0.77633827  0.25154189    -0.03100
C354        C  0.81270587  0.01700122  0.25090447    -0.03100
C355        C  0.31367385  0.71746822  0.24928452    -0.03100
C356        C  0.18644802  0.97567749  0.25035384    -0.03100
O357        O  0.95592876  0.56127117  0.44587667    -0.75000
O358        O  0.04422753  0.55108176  0.05525496    -0.75100
O359        O  0.04553513  0.55067190  0.44743323    -0.75100
O360        O  0.95464859  0.56110542  0.05442476    -0.75200
O361        O  0.95269118  0.94183802  0.05302568    -0.75100
O362        O  0.04387215  0.93236737  0.44678350    -0.75100
O363        O  0.04205891  0.93257727  0.05422853    -0.75100
O364        O  0.95431150  0.94240152  0.44580115    -0.75100
Ni365      Ni  0.00014312  0.56003860  0.50040687     1.25400
Ni366      Ni  0.99776415  0.93368088  0.99986741     1.25400
C367        C  0.94049221  0.00366378  0.42862001     0.87100
C368        C  0.05792864  0.99036786  0.07284421     0.87100
C369        C  0.05939348  0.48937383  0.42949710     0.87100
C370        C  0.93847098  0.50296778  0.07111495     0.87300
O371        O  0.46006331  0.69297962  0.05384521    -0.75000
O372        O  0.54840229  0.70605483  0.44739619    -0.75100
O373        O  0.54822615  0.70759590  0.05388893    -0.75100
O374        O  0.45971458  0.69047126  0.44693407    -0.75200
O375        O  0.44924574  0.80918068  0.44707588    -0.75100
O376        O  0.53859335  0.82674934  0.05538762    -0.75100
O377        O  0.53811960  0.82499134  0.44753384    -0.75100
O378        O  0.44993278  0.81187804  0.05566189    -0.75100
Ni379      Ni  0.50447643  0.69656102  0.00003370     1.25400
Ni380      Ni  0.49336535  0.82203460  0.50109487     1.25400
C381        C  0.44110873  0.74984891  0.07343352     0.87100
C382        C  0.55844229  0.76790817  0.43038257     0.87100
C383        C  0.55795718  0.76917562  0.07248850     0.87100
C384        C  0.43968342  0.74700028  0.42913355     0.87300
C385        C  0.15473505  0.47550861  0.30022124    -0.05900
C386        C  0.15596334  0.53100263  0.33907509    -0.17900
C387        C  0.12699221  0.53523298  0.38250569     0.10500
C388        C  0.09367883  0.48493849  0.38725953    -0.06700
C389        C  0.09237282  0.93035497  0.35000534    -0.17900
C390        C  0.12184956  0.92435899  0.30723829     0.10500
S391        S  0.13393616  0.60474777  0.43200090    -0.32900
S392        S  0.11518696  0.84865818  0.26277629    -0.32900
H393        H  0.09235962  0.80540283  0.29815236     0.28500
H394        H  0.17568612  0.62612255  0.41511393     0.28500
H395        H  0.17841309  0.57398625  0.33509844     0.19100
H396        H  0.06657061  0.89199973  0.35348833     0.19100
C397        C  0.15335483  0.98138388  0.20200738    -0.06700
C398        C  0.15127592  0.92528870  0.16374605    -0.17900
C399        C  0.12245023  0.92819209  0.12050038     0.10500
C400        C  0.09191337  0.98657442  0.11533963    -0.06700
C401        C  0.09243683  0.54116465  0.15252116    -0.17900
C402        C  0.12172472  0.53948436  0.19574601     0.10500
S403        S  0.12775603  0.85618355  0.07238712    -0.32900
S404        S  0.11845038  0.61538645  0.24121375    -0.32900
H405        H  0.07891334  0.64780126  0.22231958     0.28500
H406        H  0.12284563  0.90136170  0.02820086     0.28500
H407        H  0.17174353  0.87697937  0.16706455     0.19100
H408        H  0.06904757  0.58608780  0.14842161     0.19100
C409        C  0.27972398  0.78402062  0.24926218    -0.06700
C410        C  0.27878960  0.83436373  0.20766776    -0.17900
C411        C  0.24923820  0.89385816  0.20610895     0.10500
C412        C  0.21746985  0.90595575  0.24736386    -0.06700
C413        C  0.21797215  0.85501721  0.28853519    -0.17900
C414        C  0.24688621  0.79472636  0.28948993     0.10500
S415        S  0.25223463  0.95050703  0.14832002    -0.32900
S416        S  0.24251638  0.73637809  0.34613481    -0.32900
H417        H  0.19809557  0.75417546  0.35844922     0.28500
H418        H  0.29452392  0.92738839  0.13069641     0.28500
H419        H  0.29940665  0.82564435  0.17338047     0.19100
H420        H  0.19728254  0.86340851  0.32284459     0.19100
C421        C  0.28282132  0.65161418  0.24739022    -0.06700
C422        C  0.28296283  0.60084319  0.28853737    -0.17900
C423        C  0.25316556  0.54488199  0.29069400     0.10500
C424        C  0.21942295  0.53853526  0.25136516    -0.06700
C425        C  0.21990331  0.58883921  0.20986871    -0.17900
C426        C  0.24961789  0.64442880  0.20758306     0.10500
S427        S  0.25859171  0.48509098  0.34663732    -0.32900
S428        S  0.24579499  0.70052226  0.14941312    -0.32900
H429        H  0.20023645  0.69344992  0.14070515     0.28500
H430        H  0.30201405  0.50140411  0.36090691     0.28500
H431        H  0.30500844  0.60646943  0.32162353     0.19100
H432        H  0.19839735  0.58345843  0.17624194     0.19100
C433        C  0.40600421  0.73943758  0.38632068    -0.06700
C434        C  0.40863535  0.67846074  0.35337759    -0.17900
C435        C  0.37916332  0.66837202  0.31102750     0.10500
C436        C  0.34472632  0.72099311  0.30004765    -0.06700
C437        C  0.34369818  0.78312985  0.33341729    -0.17900
C438        C  0.37208612  0.79134419  0.37679373     0.10500
S439        S  0.38855551  0.58845804  0.27099325    -0.32900
S440        S  0.36334439  0.86882533  0.41961650    -0.32900
H441        H  0.31807110  0.87901685  0.40831853     0.28500
H442        H  0.41728333  0.55088767  0.30566544     0.28500
H443        H  0.43506541  0.63889809  0.36000497     0.19100
H444        H  0.32171251  0.82839557  0.32551339     0.19100
C445        C  0.40878163  0.74259061  0.11723179    -0.06700
C446        C  0.38457271  0.68024491  0.11899755    -0.17900
C447        C  0.35487171  0.66682359  0.16017654     0.10500
C448        C  0.34711013  0.71988511  0.20128902    -0.06700
C449        C  0.37412758  0.78057804  0.20005511    -0.17900
C450        C  0.40391896  0.79298698  0.15892635     0.10500
S451        S  0.33378159  0.57722121  0.15964817    -0.32900
S452        S  0.43696687  0.87180242  0.16212445    -0.32900
H453        H  0.41855258  0.90196902  0.20882174     0.28500
H454        H  0.33766314  0.56365055  0.10484877     0.28500
H455        H  0.39010501  0.64012738  0.08815539     0.19100
H456        H  0.37071614  0.82034480  0.23139658     0.19100
C457        C  0.84437432  0.01728018  0.30058930    -0.06700
C458        C  0.84279154  0.96297708  0.33958004    -0.17900
C459        C  0.87249287  0.95831493  0.38213449     0.10500
C460        C  0.90628294  0.00789116  0.38647237    -0.06700
C461        C  0.90782776  0.56277944  0.34801045    -0.17900
C462        C  0.87792393  0.56878999  0.30553931     0.10500
S463        S  0.86604493  0.88899615  0.43101471    -0.32900
S464        S  0.88478329  0.64275137  0.26042951    -0.32900
H465        H  0.91910185  0.67659725  0.28725913     0.28500
H466        H  0.82562685  0.86371183  0.41249428     0.28500
H467        H  0.81959136  0.92093466  0.33626001     0.19100
H468        H  0.93395394  0.60056244  0.35167598     0.19100
C469        C  0.90423170  0.50603927  0.11313631    -0.06700
C470        C  0.90732429  0.95294987  0.15265742    -0.17900
C471        C  0.87881165  0.95422932  0.19633209     0.10500
C472        C  0.84502047  0.01032831  0.20184733    -0.06700
C473        C  0.84396943  0.56623444  0.16149851    -0.17900
C474        C  0.87239614  0.56276438  0.11779549     0.10500
S475        S  0.89229430  0.88478963  0.24404773    -0.32900
S476        S  0.86512441  0.63167016  0.06847894    -0.32900
H477        H  0.87301660  0.58507543  0.02498340     0.28500
H478        H  0.84983903  0.86426665  0.25655352     0.28500
H479        H  0.93314406  0.91115878  0.15008131     0.19100
H480        H  0.82243724  0.61344971  0.16443573     0.19100
C481        C  0.78038733  0.58755914  0.24768123    -0.06700
C482        C  0.78160491  0.64058724  0.28794598    -0.17900
C483        C  0.75271721  0.70087712  0.28977323     0.10500
C484        C  0.71775014  0.70905878  0.25194590    -0.06700
C485        C  0.71707992  0.65671193  0.21101475    -0.17900
C486        C  0.74682176  0.59742018  0.20825743     0.10500
S487        S  0.76087541  0.76313800  0.34419501    -0.32900
S488        S  0.74096733  0.53673462  0.15219203    -0.32900
H489        H  0.70217993  0.56731199  0.12990057     0.28500
H490        H  0.80642951  0.74798097  0.35074084     0.28500
H491        H  0.80388294  0.63423481  0.32089262     0.19100
H492        H  0.69379397  0.66253555  0.17907667     0.19100
C493        C  0.71570832  0.84189605  0.24862082    -0.06700
C494        C  0.71563957  0.89445235  0.28946050    -0.17900
C495        C  0.74569168  0.94976664  0.29155893     0.10500
C496        C  0.77951522  0.95392909  0.25231568    -0.06700
C497        C  0.77903395  0.90221582  0.21102925    -0.17900
C498        C  0.74900646  0.84712515  0.20882592     0.10500
S499        S  0.74048821  0.01182958  0.34723355    -0.32900
S500        S  0.75440271  0.78644271  0.15244348    -0.32900
H501        H  0.79988308  0.79437999  0.14388210     0.28500
H502        H  0.69770155  0.99498839  0.36346942     0.28500
H503        H  0.69292300  0.89150112  0.32205565     0.19100
H504        H  0.80148733  0.90527928  0.17813984     0.19100
C505        C  0.65371055  0.78031320  0.30213934    -0.06700
C506        C  0.65809785  0.72742699  0.34224068    -0.17900
C507        C  0.62960729  0.72484848  0.38561614     0.10500
C508        C  0.59321446  0.77366605  0.38945078    -0.06700
C509        C  0.58833712  0.82730717  0.35136141    -0.17900
C510        C  0.61736836  0.83191258  0.30836615     0.10500
S511        S  0.64219861  0.65776496  0.43503982    -0.32900
S512        S  0.60109200  0.90179620  0.26204775    -0.32900
H513        H  0.64246757  0.92195049  0.24501510     0.28500
H514        H  0.63019222  0.70245899  0.47837717     0.28500
H515        H  0.68269895  0.68446909  0.33995774     0.19100
H516        H  0.56028433  0.86504428  0.35402006     0.19100
C517        C  0.65127354  0.77324800  0.20336009    -0.06700
C518        C  0.65150042  0.82578247  0.16281281    -0.17900
C519        C  0.62269546  0.82508906  0.11939081     0.10500
C520        C  0.59079297  0.77239997  0.11580457    -0.06700
C521        C  0.58872154  0.72157638  0.15589365    -0.17900
C522        C  0.61746538  0.72108426  0.19927693     0.10500
S523        S  0.62927532  0.89218847  0.06924316    -0.32900
S524        S  0.60472664  0.65435759  0.24818864    -0.32900
H525        H  0.64743298  0.63064642  0.26137860     0.28500
H526        H  0.62050154  0.84626844  0.02622566     0.28500
H527        H  0.67366230  0.86962099  0.16434784     0.19100
H528        H  0.56332760  0.68210264  0.15400185     0.19100
C529        C  0.68461185  0.77835904  0.75123290    -0.03100
C530        C  0.81278314  0.01960988  0.74978837    -0.03100
C531        C  0.31311905  0.72197274  0.74960201    -0.03100
C532        C  0.18576896  0.97969776  0.75116614    -0.03100
O533        O  0.95521335  0.56204908  0.94696831    -0.75000
O534        O  0.04409692  0.55043477  0.55482978    -0.75100
O535        O  0.04473604  0.55238948  0.94783286    -0.75100
O536        O  0.95465735  0.56094790  0.55338999    -0.75200
O537        O  0.95349171  0.94230768  0.55315016    -0.75100
O538        O  0.04308501  0.93394940  0.94685322    -0.75100
O539        O  0.04282066  0.93235734  0.55423963    -0.75100
O540        O  0.95349299  0.94326335  0.94569320    -0.75100
Ni541      Ni  0.99978701  0.56087703  0.00118352     1.25400
Ni542      Ni  0.99855844  0.93312084  0.49992436     1.25400
C543        C  0.93972474  0.00465894  0.92867454     0.87100
C544        C  0.05879980  0.99030877  0.57238436     0.87100
C545        C  0.05878149  0.49144260  0.92953614     0.87100
C546        C  0.93833054  0.50307541  0.57042801     0.87300
O547        O  0.45968587  0.69212353  0.55454536    -0.75000
O548        O  0.54852189  0.70872328  0.94671786    -0.75100
O549        O  0.54791074  0.70665383  0.55460500    -0.75100
O550        O  0.45983865  0.69347717  0.94624745    -0.75200
O551        O  0.44956727  0.81216436  0.94747626    -0.75100
O552        O  0.53829389  0.82580100  0.55494272    -0.75100
O553        O  0.53846276  0.82769688  0.94793453    -0.75100
O554        O  0.44962623  0.81107183  0.55517725    -0.75100
Ni555      Ni  0.50424649  0.69467422  0.50077488     1.25400
Ni556      Ni  0.49367902  0.82391116  0.00157216     1.25400
C557        C  0.44073796  0.74941554  0.57350188     0.87100
C558        C  0.55867789  0.77077335  0.93025353     0.87100
C559        C  0.55767021  0.76853055  0.57260615     0.87100
C560        C  0.43991480  0.75038982  0.92890616     0.87300
C561        C  0.15385905  0.47982983  0.80009607    -0.05900
C562        C  0.15397612  0.53637015  0.83816252    -0.17900
C563        C  0.12499117  0.54023294  0.88153515     0.10500
C564        C  0.09292338  0.48796622  0.88717514    -0.06700
C565        C  0.09225865  0.93242813  0.85102572    -0.17900
C566        C  0.12171830  0.92693136  0.80823688     0.10500
S567        S  0.13040306  0.61173389  0.92990130    -0.32900
S568        S  0.11606234  0.85034130  0.76432648    -0.32900
H569        H  0.09232617  0.80756394  0.79912519     0.28500
H570        H  0.16788603  0.64258870  0.90807355     0.28500
H571        H  0.17567381  0.58025841  0.83358798     0.19100
H572        H  0.06706239  0.89310044  0.85488849     0.19100
C573        C  0.15288988  0.98403029  0.70265023    -0.06700
C574        C  0.15109991  0.92697339  0.66510109    -0.17900
C575        C  0.12264172  0.92879007  0.62153866     0.10500
C576        C  0.09229220  0.98715537  0.61528308    -0.06700
C577        C  0.09135066  0.54211597  0.65230899    -0.17900
C578        C  0.12105456  0.54226032  0.69504121     0.10500
S579        S  0.12800635  0.85526955  0.57468521    -0.32900
S580        S  0.11711056  0.61901470  0.73960286    -0.32900
H581        H  0.09252849  0.66545503  0.70620228     0.28500
H582        H  0.12354568  0.89904148  0.52968764     0.28500
H583        H  0.17151330  0.87872436  0.66924096     0.19100
H584        H  0.06709908  0.58591277  0.64848255     0.19100
C585        C  0.27957749  0.78890881  0.74988159    -0.06700
C586        C  0.27850456  0.83916125  0.70826558    -0.17900
C587        C  0.24892537  0.89866589  0.70693976     0.10500
C588        C  0.21738921  0.91074600  0.74846708    -0.06700
C589        C  0.21843851  0.86039487  0.78996044    -0.17900
C590        C  0.24741207  0.80026891  0.79080272     0.10500
S591        S  0.25125773  0.95503406  0.64894603    -0.32900
S592        S  0.24395443  0.74308095  0.84819041    -0.32900
H593        H  0.19937493  0.75982321  0.86035866     0.28500
H594        H  0.29314093  0.93131583  0.63036029     0.28500
H595        H  0.29901813  0.83033584  0.67389954     0.19100
H596        H  0.19807227  0.86910917  0.82450824     0.19100
C597        C  0.28168616  0.65682229  0.74802959    -0.06700
C598        C  0.28132406  0.60677060  0.78957053    -0.17900
C599        C  0.25150259  0.55088715  0.79177057     0.10500
C600        C  0.21839566  0.54362948  0.75174243    -0.06700
C601        C  0.21901621  0.59369216  0.71010902    -0.17900
C602        C  0.24865941  0.64949948  0.70797572     0.10500
S603        S  0.25606640  0.49204291  0.84843057    -0.32900
S604        S  0.24530039  0.70551929  0.64968198    -0.32900
H605        H  0.20086754  0.69369744  0.63708168     0.28500
H606        H  0.29544976  0.51726414  0.87001303     0.28500
H607        H  0.30314400  0.61294497  0.82275240     0.19100
H608        H  0.19769088  0.58781036  0.67638487     0.19100
C609        C  0.40622266  0.74368355  0.88595717    -0.06700
C610        C  0.40751792  0.68152573  0.85418063    -0.17900
C611        C  0.37799783  0.67178778  0.81185793     0.10500
C612        C  0.34448914  0.72555703  0.80006765    -0.06700
C613        C  0.34493114  0.78897732  0.83202473    -0.17900
C614        C  0.37368812  0.79743289  0.87500534     0.10500
S615        S  0.38634536  0.59078876  0.77282647    -0.32900
S616        S  0.36738774  0.87810809  0.91498250    -0.32900
H617        H  0.32205929  0.88967582  0.90469541     0.28500
H618        H  0.41191463  0.55137190  0.80978556     0.28500
H619        H  0.43304960  0.64068038  0.86153763     0.19100
H620        H  0.32392387  0.83512627  0.82306806     0.19100
C621        C  0.40833282  0.74331384  0.61724691    -0.06700
C622        C  0.38351506  0.68171627  0.61934396    -0.17900
C623        C  0.35384264  0.66940929  0.66077063     0.10500
C624        C  0.34637217  0.72330480  0.70139274    -0.06700
C625        C  0.37384511  0.78339323  0.69963184    -0.17900
C626        C  0.40414375  0.79401451  0.65877560     0.10500
S627        S  0.33245081  0.58005805  0.66123133    -0.32900
S628        S  0.43845558  0.87124371  0.66210579    -0.32900
H629        H  0.43154483  0.88690494  0.71622726     0.28500
H630        H  0.33686246  0.56470207  0.60673271     0.28500
H631        H  0.38868722  0.64121467  0.58870075     0.19100
H632        H  0.37055500  0.82416824  0.73029248     0.19100
C633        C  0.84454496  0.01916511  0.79951112    -0.06700
C634        C  0.84263618  0.96471903  0.83838419    -0.17900
C635        C  0.87171632  0.96033434  0.88158634     0.10500
C636        C  0.90586928  0.00917651  0.88609513    -0.06700
C637        C  0.90735590  0.56384332  0.84899424    -0.17900
C638        C  0.87771795  0.56995021  0.80629798     0.10500
S639        S  0.86380797  0.89258499  0.93121827    -0.32900
S640        S  0.88507766  0.64394244  0.76144046    -0.32900
H641        H  0.91321587  0.68394663  0.79365616     0.28500
H642        H  0.82110700  0.87411505  0.91544089     0.28500
H643        H  0.81954837  0.92252209  0.83468324     0.19100
H644        H  0.93347748  0.60163176  0.85279822     0.19100
C645        C  0.90423995  0.50664082  0.61277135    -0.06700
C646        C  0.90591704  0.95248742  0.65104521    -0.17900
C647        C  0.87670200  0.95431265  0.69429299     0.10500
C648        C  0.84507045  0.01305426  0.70074109    -0.06700
C649        C  0.84482914  0.56793374  0.66195909    -0.17900
C650        C  0.87308493  0.56424061  0.61810761     0.10500
S651        S  0.88077283  0.87953096  0.73972639    -0.32900
S652        S  0.86647527  0.63417635  0.56950454    -0.32900
H653        H  0.87309273  0.58790267  0.52556351     0.28500
H654        H  0.91165808  0.83609074  0.71131981     0.28500
H655        H  0.93015789  0.90860808  0.64715698     0.19100
H656        H  0.82376016  0.61566520  0.66530683     0.19100
C657        C  0.78077936  0.58955123  0.74766286    -0.06700
C658        C  0.78178320  0.64243767  0.78809516    -0.17900
C659        C  0.75294427  0.70292642  0.78975293     0.10500
C660        C  0.71809487  0.71120560  0.75175703    -0.06700
C661        C  0.71769761  0.65903096  0.71069069    -0.17900
C662        C  0.74739526  0.59973839  0.70810442     0.10500
S663        S  0.76101932  0.76551401  0.84399791    -0.32900
S664        S  0.74172836  0.54029096  0.65145908    -0.32900
H665        H  0.69673361  0.55625652  0.64140013     0.28500
H666        H  0.80628017  0.74904558  0.85183799     0.28500
H667        H  0.80386884  0.63585694  0.82121570     0.19100
H668        H  0.69489042  0.66503461  0.67820058     0.19100
C669        C  0.71575396  0.84409543  0.74802453    -0.06700
C670        C  0.71570430  0.89691478  0.78869237    -0.17900
C671        C  0.74558321  0.95250668  0.79037841     0.10500
C672        C  0.77940897  0.95660268  0.75115401    -0.06700
C673        C  0.77877202  0.90475993  0.70997998    -0.17900
C674        C  0.74886683  0.84945100  0.70804272     0.10500
S675        S  0.73999040  0.01470849  0.84577355    -0.32900
S676        S  0.75411280  0.78882472  0.65161174    -0.32900
H677        H  0.79947785  0.79729960  0.64255084     0.28500
H678        H  0.69458341  0.00629478  0.85453727     0.28500
H679        H  0.69317112  0.89416954  0.82153191     0.19100
H680        H  0.80039180  0.90850858  0.67640586     0.19100
C681        C  0.65390283  0.78266403  0.80185641    -0.06700
C682        C  0.65828633  0.73001274  0.84209728    -0.17900
C683        C  0.62984777  0.72774440  0.88554482     0.10500
C684        C  0.59350889  0.77670473  0.88937657    -0.06700
C685        C  0.58862363  0.83015039  0.85114932    -0.17900
C686        C  0.61757653  0.83435757  0.80800415     0.10500
S687        S  0.64238977  0.66073877  0.93504515    -0.32900
S688        S  0.60117866  0.90378445  0.76137790    -0.32900
H689        H  0.64251010  0.92393636  0.74419367     0.28500
H690        H  0.63025352  0.70542342  0.97833745     0.28500
H691        H  0.68283184  0.68695672  0.83984744     0.19100
H692        H  0.56058523  0.86791953  0.85376924     0.19100
C693        C  0.65136644  0.77458316  0.70316063    -0.06700
C694        C  0.65125553  0.82681827  0.66239275    -0.17900
C695        C  0.62239169  0.82538419  0.61901891     0.10500
C696        C  0.59061946  0.77243413  0.61582797    -0.06700
C697        C  0.58892289  0.72183182  0.65612797    -0.17900
C698        C  0.61785147  0.72188757  0.69934852     0.10500
S699        S  0.62884073  0.89170222  0.56828563    -0.32900
S700        S  0.60567596  0.65512088  0.74846529    -0.32900
H701        H  0.64851528  0.63182402  0.76139144     0.28500
H702        H  0.62034139  0.84490392  0.52569293     0.28500
H703        H  0.67324813  0.87089727  0.66367760     0.19100
H704        H  0.56371788  0.68202881  0.65450669     0.19100
loop_ 
_geom_bond_atom_site_label_1 
_geom_bond_atom_site_label_2 
_geom_bond_distance 
_geom_bond_site_symmetry_2 
_ccdc_geom_bond_type 
C1          C132   1.580       .  S
C1          C141   1.577       .  S
C1          C153   1.579       .  S
C1          C165   1.579       .  S
C2          C105   1.581       .  S
C2          C120   1.578       .  S
C2          C144   1.579       .  S
C2          C481   1.577       .  S
C3           C57   1.582       .  S
C3           C69   1.569       .  S
C3           C84   1.590       .  S
C3           C96   1.580       .  S
C4           C45   1.581       .  S
C4           C60   1.578       .  S
C4          C385   1.580       .  S
C4          C424   1.583       .  S
O5          Ni13   1.919   1_655  S
O5          C367   1.282       .  A
O6         Ni189   1.920   1_455  S
O6          C368   1.282   1_545  A
O7          Ni13   1.918       .  S
O7           C17   1.281   1_545  A
O8         Ni189   1.917       .  S
O8           C18   1.281       .  A
O9          Ni14   1.918   1_554  S
O9          C370   1.282       .  A
O10        Ni190   1.920   1_455  S
O10         C369   1.283       .  A
O11         Ni14   1.918   1_454  S
O11          C16   1.281       .  A
O12        Ni190   1.919       .  S
O12          C15   1.282       .  A
Ni13        O182   1.916       .  S
Ni13        O184   1.917   1_455  S
Ni13       Ni542   2.385   1_445  S
Ni14        O186   1.920   1_655  S
Ni14        O188   1.919       .  S
Ni14       Ni541   2.385   1_556  S
C15         O357   1.282       .  A
C15         C108   1.486       .  S
C16         O358   1.283       .  A
C16          C48   1.487       .  S
C17         O362   1.282       .  A
C17          C36   1.485       .  S
C18         O361   1.281   1_545  A
C18         C117   1.479       .  S
O19         Ni27   1.915       .  S
O19          C29   1.282       .  A
O20        Ni203   1.917       .  S
O20          C30   1.281       .  A
O21         Ni27   1.914       .  S
O21          C31   1.281       .  A
O22        Ni203   1.915       .  S
O22          C32   1.281       .  A
O23         Ni28   1.926       .  S
O23          C32   1.283       .  A
O24        Ni204   1.923       .  S
O24          C31   1.282       .  A
O25         Ni28   1.917       .  S
O25          C30   1.281       .  A
O26        Ni204   1.922       .  S
O26          C29   1.281       .  A
Ni27        O196   1.916   1_554  S
Ni27        O198   1.918   1_554  S
Ni27       Ni204   2.384       .  S
Ni28        O200   1.922       .  S
Ni28        O202   1.920       .  S
Ni28       Ni203   2.385       .  S
C29          C93   1.487       .  S
C30         C156   1.483       .  S
C31         C168   1.480       .  S
C32          C81   1.493       .  S
C33         C356   1.578       .  S
C33          C34   1.420   1_565  A
C33         C390   1.436       .  A
C34          C35   1.403       .  A
C34          H43   1.076       .  S
C35          C36   1.408   1_545  A
C35          S39   1.809       .  S
C36         C389   1.397       .  A
C37          C38   1.403       .  A
C37         C388   1.398       .  A
C37          H44   1.083       .  S
C38         C385   1.436       .  A
C38          S40   1.812       .  S
S39          H42   1.407       .  S
S40          H41   1.407       .  S
C45          C46   1.420       .  A
C45         C402   1.436       .  A
C46          C47   1.398       .  A
C46          H55   1.078       .  S
C47          C48   1.409       .  A
C47          S51   1.804       .  S
C48         C401   1.400       .  A
C49          C50   1.405       .  A
C49         C400   1.400   1_545  A
C49          H56   1.082       .  S
C50         C397   1.436   1_545  A
C50          S52   1.814       .  S
S51          H54   1.408       .  S
S52          H53   1.406       .  S
C57          C58   1.414       .  A
C57          C62   1.429       .  A
C58          C59   1.401       .  A
C58          H67   1.075       .  S
C59          C60   1.429       .  A
C59          S63   1.812       .  S
C60          C61   1.413       .  A
C61          C62   1.400       .  A
C61          H68   1.075       .  S
C62          S64   1.812       .  S
S63          H66   1.407       .  S
S64          H65   1.408       .  S
C69          C70   1.411       .  A
C69          C74   1.430       .  A
C70          C71   1.404       .  A
C70          H79   1.076       .  S
C71          C72   1.431       .  A
C71          S75   1.809   1_545  S
C72         C356   1.582   1_545  S
C72          C73   1.412       .  A
C73          C74   1.400       .  A
C73          H80   1.075       .  S
C74          S76   1.813       .  S
S75          H78   1.407       .  S
S76          H77   1.407       .  S
C81          C82   1.401       .  A
C81          C86   1.407       .  A
C82          C83   1.406       .  A
C82          H91   1.082       .  S
C83          C84   1.434       .  A
C83          S87   1.805       .  S
C84          C85   1.425       .  A
C85          C86   1.402       .  A
C85          H92   1.076       .  S
C86          S88   1.807       .  S
S87          H90   1.407       .  S
S88          H89   1.406       .  S
C93          C94   1.398       .  A
C93          C98   1.408       .  A
C94          C95   1.404       .  A
C94         H103   1.083       .  S
C95          C96   1.441       .  A
C95          S99   1.812       .  S
C96          C97   1.421       .  A
C97          C98   1.402       .  A
C97         H104   1.081       .  S
C98         S100   1.809       .  S
S99         H102   1.407       .  S
S100        H101   1.407       .  S
C105        C106   1.421       .  A
C105        C462   1.436       .  A
C106        C107   1.401       .  A
C106        H115   1.075       .  S
C107        C108   1.407       .  A
C107        S111   1.810       .  S
C108        C461   1.399       .  A
C109        C110   1.404       .  A
C109        C460   1.399       .  A
C109        H116   1.082       .  S
C110        C457   1.436       .  A
C110        S112   1.814       .  S
S111        H114   1.407       .  S
S112        H113   1.406       .  S
C117        C122   1.405       .  A
C117        C470   1.396   1_545  A
C118        C119   1.401       .  A
C118        C469   1.398       .  A
C118        H127   1.084       .  S
C119        C120   1.435       .  A
C119        S123   1.808       .  S
C120        C473   1.420       .  A
C121        C122   1.397       .  A
C121        C472   1.422       .  A
C121        H128   1.076       .  S
C122        S124   1.804       .  S
S123        H126   1.408       .  S
S124        H125   1.408       .  S
C129        C354   1.579       .  S
C129        C130   1.413       .  A
C129        C134   1.431       .  A
C130        C131   1.400       .  A
C130        H139   1.075       .  S
C131        C132   1.430       .  A
C131        S135   1.813       .  S
C132        C133   1.414       .  A
C133        C134   1.398       .  A
C133        H140   1.075       .  S
C134        S136   1.814       .  S
S135        H138   1.408       .  S
S136        H137   1.407       .  S
C141        C142   1.415       .  A
C141        C146   1.429       .  A
C142        C143   1.403       .  A
C142        H151   1.075       .  S
C143        C144   1.430       .  A
C143        S147   1.815       .  S
C144        C145   1.412       .  A
C145        C146   1.397       .  A
C145        H152   1.075       .  S
C146        S148   1.813       .  S
S147        H150   1.406       .  S
S148        H149   1.408       .  S
C153        C154   1.422       .  A
C153        C158   1.442       .  A
C154        C155   1.396       .  A
C154        H163   1.075       .  S
C155        C156   1.406       .  A
C155        S159   1.805       .  S
C156        C157   1.397       .  A
C157        C158   1.402       .  A
C157        H164   1.084       .  S
C158        S160   1.813       .  S
S159        H162   1.408       .  S
S160        H161   1.391       .  S
C165        C166   1.423       .  A
C165        C170   1.442       .  A
C166        C167   1.400       .  A
C166        H175   1.077       .  S
C167        C168   1.406       .  A
C167        S171   1.804       .  S
C168        C169   1.396       .  A
C169        C170   1.399       .  A
C169        H176   1.085       .  S
C170        S172   1.812       .  S
S171        H174   1.407       .  S
S172        H173   1.392       .  S
C177        C308   1.581       .  S
C177        C317   1.577       .  S
C177        C329   1.580       .  S
C177        C341   1.577       .  S
C178        C281   1.581       .  S
C178        C296   1.580       .  S
C178        C657   1.578       .  S
C178        C320   1.579       .  S
C179        C233   1.580       .  S
C179        C245   1.570       .  S
C179        C260   1.590       .  S
C179        C272   1.581       .  S
C180        C561   1.579       .  S
C180        C221   1.580       .  S
C180        C236   1.576       .  S
C180        C600   1.583       .  S
O181       Ni189   1.920   1_556  S
O181        C543   1.282       .  A
O182        C544   1.282   1_545  A
O183       Ni189   1.917   1_456  S
O183        C193   1.281   1_545  A
O184        C194   1.281       .  A
O185       Ni190   1.919       .  S
O185        C546   1.282       .  A
O186        C545   1.283       .  A
O187       Ni190   1.919   1_455  S
O187        C192   1.281       .  A
O188        C191   1.281       .  A
Ni189      Ni366   2.386   1_544  S
Ni190      Ni365   2.385   1_655  S
C191        O533   1.282       .  A
C191        C284   1.487       .  S
C192        O534   1.282       .  A
C192        C224   1.485       .  S
C193        O538   1.282       .  A
C193        C212   1.485       .  S
C194        O537   1.282   1_545  A
C194        C293   1.483       .  S
O195       Ni203   1.916       .  S
O195        C205   1.282       .  A
O196        C206   1.281       .  A
O197       Ni203   1.911       .  S
O197        C207   1.280       .  A
O198        C208   1.282       .  A
O199       Ni204   1.926   1_556  S
O199        C208   1.283       .  A
O200        C207   1.282       .  A
O201       Ni204   1.919   1_556  S
O201        C206   1.282       .  A
O202        C205   1.281       .  A
C205        C269   1.486       .  S
C206        C332   1.483       .  S
C207        C344   1.479       .  S
C208        C257   1.497       .  S
C209        C532   1.578       .  S
C209        C210   1.420   1_565  A
C209        C566   1.436       .  A
C210        C211   1.402       .  A
C210        H219   1.076       .  S
C211        C212   1.409   1_545  A
C211        S215   1.810       .  S
C212        C565   1.398       .  A
C213        C564   1.398       .  A
C213        C214   1.402       .  A
C213        H220   1.083       .  S
C214        C561   1.436       .  A
C214        S216   1.812       .  S
S215        H218   1.407       .  S
S216        H217   1.407       .  S
C221        C222   1.421       .  A
C221        C578   1.435       .  A
C222        C223   1.398       .  A
C222        H231   1.078       .  S
C223        C224   1.408       .  A
C223        S227   1.804       .  S
C224        C577   1.399       .  A
C225        C576   1.399   1_545  A
C225        C226   1.403       .  A
C225        H232   1.083       .  S
C226        C573   1.435   1_545  A
C226        S228   1.812       .  S
S227        H230   1.408       .  S
S228        H229   1.407       .  S
C233        C234   1.414       .  A
C233        C238   1.428       .  A
C234        C235   1.401       .  A
C234        H243   1.075       .  S
C235        C236   1.428       .  A
C235        S239   1.812       .  S
C236        C237   1.412       .  A
C237        C238   1.398       .  A
C237        H244   1.076       .  S
C238        S240   1.811       .  S
S239        H242   1.407       .  S
S240        H241   1.408       .  S
C245        C246   1.410       .  A
C245        C250   1.430       .  A
C246        C247   1.404       .  A
C246        H255   1.075       .  S
C247        C248   1.431       .  A
C247        S251   1.810   1_545  S
C248        C532   1.581   1_545  S
C248        C249   1.412       .  A
C249        C250   1.400       .  A
C249        H256   1.075       .  S
C250        S252   1.811       .  S
S251        H254   1.407   1_565  S
S252        H253   1.408       .  S
C257        C258   1.402       .  A
C257        C262   1.409       .  A
C258        C259   1.407       .  A
C258        H267   1.082       .  S
C259        C260   1.433       .  A
C259        S263   1.807       .  S
C260        C261   1.425       .  A
C261        C262   1.403       .  A
C261        H268   1.076       .  S
C262        S264   1.808       .  S
S263        H266   1.406       .  S
S264        H265   1.405       .  S
C269        C270   1.397       .  A
C269        C274   1.407       .  A
C270        C271   1.405       .  A
C270        H279   1.082       .  S
C271        C272   1.441       .  A
C271        S275   1.812       .  S
C272        C273   1.421       .  A
C273        C274   1.401       .  A
C273        H280   1.081       .  S
C274        S276   1.809       .  S
S275        H278   1.406       .  S
S276        H277   1.407       .  S
C281        C282   1.421       .  A
C281        C638   1.436       .  A
C282        C283   1.403       .  A
C282        H291   1.075       .  S
C283        C284   1.408       .  A
C283        S287   1.810       .  S
C284        C637   1.399       .  A
C285        C636   1.398       .  A
C285        C286   1.404       .  A
C285        H292   1.083       .  S
C286        C633   1.436       .  A
C286        S288   1.813       .  S
S287        H290   1.406       .  S
S288        H289   1.407       .  S
C293        C646   1.399   1_545  A
C293        C298   1.408       .  A
C294        C645   1.399       .  A
C294        C295   1.404       .  A
C294        H303   1.082       .  S
C295        C296   1.437       .  A
C295        S299   1.813       .  S
C296        C649   1.420       .  A
C297        C648   1.420       .  A
C297        C298   1.397       .  A
C297        H304   1.078       .  S
C298        S300   1.804       .  S
S299        H302   1.406       .  S
S300        H301   1.408       .  S
C305        C530   1.576       .  S
C305        C306   1.413       .  A
C305        C310   1.429       .  A
C306        C307   1.401       .  A
C306        H315   1.074       .  S
C307        C308   1.431       .  A
C307        S311   1.815       .  S
C308        C309   1.415       .  A
C309        C310   1.398       .  A
C309        H316   1.075       .  S
C310        S312   1.814       .  S
S311        H314   1.407       .  S
S312        H313   1.407       .  S
C317        C318   1.415       .  A
C317        C322   1.429       .  A
C318        C319   1.403       .  A
C318        H327   1.076       .  S
C319        C320   1.429       .  A
C319        S323   1.813       .  S
C320        C321   1.412       .  A
C321        C322   1.397       .  A
C321        H328   1.075       .  S
C322        S324   1.813       .  S
S323        H326   1.407       .  S
S324        H325   1.408       .  S
C329        C330   1.421       .  A
C329        C334   1.443       .  A
C330        C331   1.396       .  A
C330        H339   1.074       .  S
C331        C332   1.406       .  A
C331        S335   1.805       .  S
C332        C333   1.397       .  A
C333        C334   1.402       .  A
C333        H340   1.084       .  S
C334        S336   1.812       .  S
S335        H338   1.408       .  S
S336        H337   1.391       .  S
C341        C342   1.422       .  A
C341        C346   1.441       .  A
C342        C343   1.399       .  A
C342        H351   1.077       .  S
C343        C344   1.405       .  A
C343        S347   1.804       .  S
C344        C345   1.395       .  A
C345        C346   1.398       .  A
C345        H352   1.085       .  S
C346        S348   1.813       .  S
S347        H350   1.407       .  S
S348        H349   1.392       .  S
C353        C484   1.580       .  S
C353        C493   1.576       .  S
C353        C505   1.579       .  S
C353        C517   1.578       .  S
C354        C457   1.578       .  S
C354        C472   1.579       .  S
C354        C496   1.576   1_545  S
C355        C409   1.582       .  S
C355        C421   1.571       .  S
C355        C436   1.591       .  S
C355        C448   1.581       .  S
C356        C397   1.580       .  S
C356        C412   1.576       .  S
O357       Ni365   1.919   1_655  S
O358       Ni541   1.921   1_455  S
O359       Ni365   1.920       .  S
O359        C369   1.281       .  A
O360       Ni541   1.917       .  S
O360        C370   1.281       .  A
O361       Ni366   1.915   1_554  S
O362       Ni542   1.918   1_455  S
O363       Ni366   1.918   1_454  S
O363        C368   1.281       .  A
O364       Ni542   1.917       .  S
O364        C367   1.281   1_565  A
Ni365       O534   1.917       .  S
Ni365       O536   1.919   1_455  S
Ni366       O538   1.917   1_655  S
Ni366       O540   1.919       .  S
C367        C460   1.485       .  S
C368        C400   1.486       .  S
C369        C388   1.488       .  S
C370        C469   1.482       .  S
O371       Ni379   1.915       .  S
O371        C381   1.282       .  A
O372       Ni555   1.917       .  S
O372        C382   1.281       .  A
O373       Ni379   1.912       .  S
O373        C383   1.281       .  A
O374       Ni555   1.917       .  S
O374        C384   1.281       .  A
O375       Ni380   1.928       .  S
O375        C384   1.284       .  A
O376       Ni556   1.923       .  S
O376        C383   1.282       .  A
O377       Ni380   1.917       .  S
O377        C382   1.281       .  A
O378       Ni556   1.923       .  S
O378        C381   1.282       .  A
Ni379       O548   1.915   1_554  S
Ni379       O550   1.917   1_554  S
Ni379      Ni556   2.385       .  S
Ni380       O552   1.925       .  S
Ni380       O554   1.919       .  S
Ni380      Ni555   2.385       .  S
C381        C445   1.487       .  S
C382        C508   1.482       .  S
C383        C520   1.480       .  S
C384        C433   1.495       .  S
C385        C386   1.420       .  A
C386        C387   1.404       .  A
C386        H395   1.076       .  S
C387        C388   1.409       .  A
C387        S391   1.809       .  S
C389        C390   1.401       .  A
C389        H396   1.083       .  S
C390        S392   1.812       .  S
S391        H394   1.407       .  S
S392        H393   1.407       .  S
C397        C398   1.419       .  A
C398        C399   1.397       .  A
C398        H407   1.078       .  S
C399        C400   1.409       .  A
C399        S403   1.804       .  S
C401        C402   1.405       .  A
C401        H408   1.082       .  S
C402        S404   1.813       .  S
S403        H406   1.408       .  S
S404        H405   1.406       .  S
C409        C410   1.414       .  A
C409        C414   1.428       .  A
C410        C411   1.400       .  A
C410        H419   1.074       .  S
C411        C412   1.428       .  A
C411        S415   1.812       .  S
C412        C413   1.414       .  A
C413        C414   1.399       .  A
C413        H420   1.075       .  S
C414        S416   1.812       .  S
S415        H418   1.407       .  S
S416        H417   1.408       .  S
C421        C422   1.411       .  A
C421        C426   1.430       .  A
C422        C423   1.406       .  A
C422        H431   1.075       .  S
C423        C424   1.431       .  A
C423        S427   1.810       .  S
C424        C425   1.412       .  A
C425        C426   1.399       .  A
C425        H432   1.076       .  S
C426        S428   1.811       .  S
S427        H430   1.407       .  S
S428        H429   1.408       .  S
C433        C434   1.402       .  A
C433        C438   1.407       .  A
C434        C435   1.408       .  A
C434        H443   1.082       .  S
C435        C436   1.434       .  A
C435        S439   1.806       .  S
C436        C437   1.425       .  A
C437        C438   1.402       .  A
C437        H444   1.075       .  S
C438        S440   1.807       .  S
S439        H442   1.406       .  S
S440        H441   1.407       .  S
C445        C446   1.398       .  A
C445        C450   1.408       .  A
C446        C447   1.405       .  A
C446        H455   1.083       .  S
C447        C448   1.440       .  A
C447        S451   1.811       .  S
C448        C449   1.422       .  A
C449        C450   1.402       .  A
C449        H456   1.081       .  S
C450        S452   1.810       .  S
S451        H454   1.407       .  S
S452        H453   1.407       .  S
C457        C458   1.420   1_545  A
C458        C459   1.402       .  A
C458        H467   1.075       .  S
C459        C460   1.408   1_565  A
C459        S463   1.810       .  S
C461        C462   1.405       .  A
C461        H468   1.082       .  S
C462        S464   1.814       .  S
S463        H466   1.406       .  S
S464        H465   1.406       .  S
C469        C474   1.408       .  A
C470        C471   1.399       .  A
C470        H479   1.085       .  S
C471        C472   1.442   1_565  A
C471        S475   1.811       .  S
C473        C474   1.398       .  A
C473        H480   1.078       .  S
C474        S476   1.804       .  S
S475        H478   1.392       .  S
S476        H477   1.408       .  S
C481        C482   1.412       .  A
C481        C486   1.430       .  A
C482        C483   1.399       .  A
C482        H491   1.075       .  S
C483        C484   1.430       .  A
C483        S487   1.812       .  S
C484        C485   1.415       .  A
C485        C486   1.401       .  A
C485        H492   1.074       .  S
C486        S488   1.816       .  S
S487        H490   1.408       .  S
S488        H489   1.406       .  S
C493        C494   1.415       .  A
C493        C498   1.430       .  A
C494        C495   1.401       .  A
C494        H503   1.075       .  S
C495        C496   1.429       .  A
C495        S499   1.814   1_565  S
C496        C497   1.413       .  A
C497        C498   1.398       .  A
C497        H504   1.076       .  S
C498        S500   1.813       .  S
S499        H502   1.407   1_545  S
S500        H501   1.408       .  S
C505        C506   1.422       .  A
C505        C510   1.442       .  A
C506        C507   1.396       .  A
C506        H515   1.074       .  S
C507        C508   1.406       .  A
C507        S511   1.805       .  S
C508        C509   1.397       .  A
C509        C510   1.402       .  A
C509        H516   1.084       .  S
C510        S512   1.813       .  S
S511        H514   1.408       .  S
S512        H513   1.391       .  S
C517        C518   1.423       .  A
C517        C522   1.441       .  A
C518        C519   1.400       .  A
C518        H527   1.077       .  S
C519        C520   1.406       .  A
C519        S523   1.804       .  S
C520        C521   1.395       .  A
C521        C522   1.398       .  A
C521        H528   1.085       .  S
C522        S524   1.812       .  S
S523        H526   1.407       .  S
S524        H525   1.392       .  S
C529        C660   1.582       .  S
C529        C669   1.577       .  S
C529        C681   1.580       .  S
C529        C693   1.579       .  S
C530        C633   1.580       .  S
C530        C648   1.578       .  S
C530        C672   1.579   1_545  S
C531        C585   1.579       .  S
C531        C597   1.571       .  S
C531        C612   1.591       .  S
C531        C624   1.580       .  S
C532        C573   1.578       .  S
C532        C588   1.575       .  S
O533       Ni541   1.921   1_556  S
O535       Ni541   1.916   1_456  S
O535        C545   1.280       .  A
O536        C546   1.281       .  A
O537       Ni542   1.917       .  S
O539       Ni542   1.916   1_455  S
O539        C544   1.281       .  A
O540        C543   1.281   1_565  A
C543        C636   1.485       .  S
C544        C576   1.483       .  S
C545        C564   1.486       .  S
C546        C645   1.485       .  S
O547       Ni555   1.916       .  S
O547        C557   1.282       .  A
O548        C558   1.281       .  A
O549       Ni555   1.913       .  S
O549        C559   1.281       .  A
O550        C560   1.281       .  A
O551       Ni556   1.926   1_556  S
O551        C560   1.283       .  A
O552        C559   1.283       .  A
O553       Ni556   1.920   1_556  S
O553        C558   1.282       .  A
O554        C557   1.281       .  A
C557        C621   1.485       .  S
C558        C684   1.483       .  S
C559        C696   1.481       .  S
C560        C609   1.496       .  S
C561        C562   1.419       .  A
C562        C563   1.403       .  A
C562        H571   1.075       .  S
C563        C564   1.409       .  A
C563        S567   1.810       .  S
C565        C566   1.401       .  A
C565        H572   1.083       .  S
C566        S568   1.812       .  S
S567        H570   1.406       .  S
S568        H569   1.407       .  S
C573        C574   1.420       .  A
C574        C575   1.396       .  A
C574        H583   1.078       .  S
C575        C576   1.408       .  A
C575        S579   1.804       .  S
C577        C578   1.404       .  A
C577        H584   1.083       .  S
C578        S580   1.812       .  S
S579        H582   1.408       .  S
S580        H581   1.407       .  S
C585        C586   1.413       .  A
C585        C590   1.428       .  A
C586        C587   1.400       .  A
C586        H595   1.074       .  S
C587        C588   1.428       .  A
C587        S591   1.812       .  S
C588        C589   1.412       .  A
C589        C590   1.398       .  A
C589        H596   1.075       .  S
C590        S592   1.811       .  S
S591        H594   1.407       .  S
S592        H593   1.408       .  S
C597        C598   1.410       .  A
C597        C602   1.431       .  A
C598        C599   1.406       .  A
C598        H607   1.074       .  S
C599        C600   1.432       .  A
C599        S603   1.812       .  S
C600        C601   1.412       .  A
C601        C602   1.401       .  A
C601        H608   1.075       .  S
C602        S604   1.812       .  S
S603        H606   1.406       .  S
S604        H605   1.408       .  S
C609        C610   1.402       .  A
C609        C614   1.408       .  A
C610        C611   1.407       .  A
C610        H619   1.082       .  S
C611        C612   1.433       .  A
C611        S615   1.805       .  S
C612        C613   1.425       .  A
C613        C614   1.402       .  A
C613        H620   1.076       .  S
C614        S616   1.807       .  S
S615        H618   1.407       .  S
S616        H617   1.406       .  S
C621        C622   1.397       .  A
C621        C626   1.407       .  A
C622        C623   1.404       .  A
C622        H631   1.083       .  S
C623        C624   1.440       .  A
C623        S627   1.810       .  S
C624        C625   1.421       .  A
C625        C626   1.400       .  A
C625        H632   1.081       .  S
C626        S628   1.808       .  S
S627        H630   1.407       .  S
S628        H629   1.407       .  S
C633        C634   1.421   1_545  A
C634        C635   1.402       .  A
C634        H643   1.075       .  S
C635        C636   1.407   1_565  A
C635        S639   1.809       .  S
C637        C638   1.405       .  A
C637        H644   1.082       .  S
C638        S640   1.813       .  S
S639        H642   1.407       .  S
S640        H641   1.407       .  S
C645        C650   1.408       .  A
C646        C647   1.404       .  A
C646        H655   1.082       .  S
C647        C648   1.436   1_565  A
C647        S651   1.814       .  S
C649        C650   1.398       .  A
C649        H656   1.078       .  S
C650        S652   1.804       .  S
S651        H654   1.406       .  S
S652        H653   1.408       .  S
C657        C658   1.413       .  A
C657        C662   1.429       .  A
C658        C659   1.401       .  A
C658        H667   1.075       .  S
C659        C660   1.431       .  A
C659        S663   1.812       .  S
C660        C661   1.415       .  A
C661        C662   1.400       .  A
C661        H668   1.076       .  S
C662        S664   1.812       .  S
S663        H666   1.408       .  S
S664        H665   1.407       .  S
C669        C670   1.415       .  A
C669        C674   1.429       .  A
C670        C671   1.401       .  A
C670        H679   1.076       .  S
C671        C672   1.429       .  A
C671        S675   1.811   1_565  S
C672        C673   1.413       .  A
C673        C674   1.398       .  A
C673        H680   1.075       .  S
C674        S676   1.813       .  S
S675        H678   1.408       .  S
S676        H677   1.408       .  S
C681        C682   1.421       .  A
C681        C686   1.443       .  A
C682        C683   1.396       .  A
C682        H691   1.075       .  S
C683        C684   1.406       .  A
C683        S687   1.805       .  S
C684        C685   1.397       .  A
C685        C686   1.402       .  A
C685        H692   1.084       .  S
C686        S688   1.813       .  S
S687        H690   1.408       .  S
S688        H689   1.391       .  S
C693        C694   1.423       .  A
C693        C698   1.441       .  A
C694        C695   1.401       .  A
C694        H703   1.077       .  S
C695        C696   1.406       .  A
C695        S699   1.803       .  S
C696        C697   1.396       .  A
C697        C698   1.398       .  A
C697        H704   1.085       .  S
C698        S700   1.812       .  S
S699        H702   1.407       .  S
S700        H701   1.392       .  S
