geometry optimzed in LAMMPS
_audit_creation_date              2020-11-30 
_audit_creation_method            'lammps2cif' 
_symmetry_space_group_name_H-M    'P1' 
_symmetry_Int_Tables_number       1 
_symmetry_cell_setting            triclinic 
loop_ 
_symmetry_equiv_pos_as_xyz 
  x,y,z 
_cell_length_a                    25.72078808 
_cell_length_b                    26.24619463510816 
_cell_length_c                    42.731963275923746 
_cell_angle_alpha                 90.0034839855657 
_cell_angle_beta                  85.00369747180056 
_cell_angle_gamma                 90.00559431965668 
loop_ 
_atom_site_label 
_atom_site_type_symbol 
_atom_site_fract_x 
_atom_site_fract_y 
_atom_site_fract_z 
_atom_site_charge 
C1          C  0.25324101  0.79599735  0.47445046     0.85900
C2          C  0.21065985  0.79771902  0.00199048    -0.54300
C3          C  0.21158945  0.75753319  0.02262921     0.08800
C4          C  0.25513966  0.71827803  0.01278753     0.19800
C5          C  0.30401296  0.79162546  0.49139905    -0.55100
C6          C  0.30538380  0.75184965  0.01193263     0.08900
C7          C  0.24668983  0.74407922  0.45871957    -0.54600
C8          C  0.24725208  0.70276290  0.47812614     0.09500
H9          H  0.18336388  0.82906913  0.00570312     0.14000
H10         H  0.25601363  0.68531829  0.02899747    -0.00200
H11         H  0.33425978  0.82050015  0.48946761     0.14300
H12         H  0.24227793  0.74031412  0.43376754     0.14100
C13         C  0.25159095  0.70280227  0.22597921     0.85900
C14         C  0.30174473  0.70470863  0.24356847    -0.54300
C15         C  0.30523125  0.74495483  0.26369253     0.08800
C16         C  0.25757834  0.78152817  0.26366882     0.19800
C17         C  0.20783767  0.70504104  0.25314284    -0.55100
C18         C  0.21136951  0.74552768  0.27353603     0.08900
C19         C  0.24877313  0.75458948  0.20957230    -0.54600
C20         C  0.25088149  0.79611927  0.22867237     0.09500
H21         H  0.33036258  0.67425316  0.24218424     0.14000
H22         H  0.26029282  0.81480419  0.27946118    -0.00200
H23         H  0.17840974  0.67558972  0.25688865     0.14300
H24         H  0.24511505  0.75809937  0.18452380     0.14100
C25         C  0.76079670  0.29649074  0.00169777     0.85900
C26         C  0.80379757  0.29778373  0.47407758    -0.54300
C27         C  0.80265900  0.25755618  0.45355703     0.08800
C28         C  0.75875082  0.21856933  0.46336708     0.19800
C29         C  0.71027871  0.29228870  0.48482003    -0.55100
C30         C  0.70880153  0.25256155  0.46404531     0.08900
C31         C  0.76740983  0.24466349  0.01753183    -0.54600
C32         C  0.76704435  0.20348701  0.49827593     0.09500
H33         H  0.83131000  0.32894443  0.47028561     0.14000
H34         H  0.75773962  0.18557016  0.44719421    -0.00200
H35         H  0.68003942  0.32117896  0.48675278     0.14300
H36         H  0.77170171  0.24106754  0.04250707     0.14100
C37         C  0.76179104  0.20220623  0.25054966     0.85900
C38         C  0.71158913  0.20405952  0.23308021    -0.54300
C39         C  0.70800403  0.24428080  0.21301929     0.08800
C40         C  0.75560506  0.28092015  0.21291614     0.19800
C41         C  0.80542618  0.20446260  0.22332045    -0.55100
C42         C  0.80178168  0.24497235  0.20295386     0.08900
C43         C  0.76464565  0.25397744  0.26696907    -0.54600
C44         C  0.76256209  0.29551020  0.24787064     0.09500
H45         H  0.68302821  0.17354161  0.23443455     0.14000
H46         H  0.75269438  0.31418362  0.19714204    -0.00200
H47         H  0.83492178  0.17509583  0.21958653     0.14300
H48         H  0.76835937  0.25747961  0.29201108     0.14100
C49         C  0.12049560  0.70947049  0.09228084     0.02500
C50         C  0.15671453  0.71019053  0.06527614    -0.13600
C51         C  0.17802469  0.75602550  0.05333407     0.00000
C52         C  0.16408927  0.80110020  0.06980421    -0.12100
C53         C  0.12785197  0.80080690  0.09678911     0.02500
C54         C  0.10766254  0.75449068  0.10843371    -0.11500
H55         H  0.16554710  0.67531246  0.05231285     0.08100
H56         H  0.17985391  0.83693442  0.06074088     0.05700
H57         H  0.07784360  0.75397395  0.12799036     0.05500
C58         C  0.12725522  0.79764216  0.34538191     0.02500
C59         C  0.16300392  0.79567824  0.31803278    -0.13600
C60         C  0.17942784  0.74888120  0.30473347     0.00000
C61         C  0.16207293  0.70441917  0.32042378    -0.12100
C62         C  0.12504059  0.70598459  0.34682840     0.02500
C63         C  0.11001944  0.75249574  0.36022683    -0.11500
H64         H  0.17470601  0.83041423  0.30567555     0.08100
H65         H  0.17421016  0.66778477  0.31065503     0.05700
H66         H  0.07945986  0.75344547  0.37936639     0.05500
C67         C  0.80977545  0.40382417  0.05562449     0.02500
C68         C  0.80962920  0.36362434  0.03329741    -0.13600
C69         C  0.76197486  0.34158050  0.02526149     0.00000
C70         C  0.71522355  0.36031053  0.04118152    -0.12100
C71         C  0.71599650  0.39946097  0.06372489     0.02500
C72         C  0.76277299  0.41988719  0.07104818    -0.11500
H73         H  0.84639124  0.34971450  0.02231449     0.08100
H74         H  0.67785211  0.34446381  0.03657441     0.05700
H75         H  0.76193535  0.45035464  0.08823307     0.05500
C76         C  0.81182831  0.41633032  0.28842637     0.02500
C77         C  0.76352544  0.43929707  0.29732739    -0.13600
C78         C  0.71639007  0.41695176  0.29056860     0.00000
C79         C  0.71739595  0.37244707  0.27190461    -0.12100
C80         C  0.76471738  0.34861331  0.26146320     0.02500
C81         C  0.81209815  0.37047204  0.27035434    -0.11500
H82         H  0.76222505  0.47313830  0.31186591     0.08100
H83         H  0.68109560  0.35427632  0.26709115     0.05700
H84         H  0.84856380  0.35074172  0.26430756     0.05500
C85         C  0.40166736  0.70365726  0.07013659     0.02500
C86         C  0.41646946  0.74920850  0.08368859    -0.13600
C87         C  0.39824181  0.79568141  0.07373170     0.00000
C88         C  0.36250555  0.79650887  0.05014414    -0.12100
C89         C  0.34433874  0.75074011  0.03688740     0.02500
C90         C  0.36427108  0.70433206  0.04748402    -0.11500
H91         H  0.44493302  0.74885507  0.10097382     0.08100
H92         H  0.34883522  0.83296070  0.04229231     0.05700
H93         H  0.35223334  0.66898945  0.03719838     0.05500
C94         C  0.40615301  0.79255646  0.31849434     0.02500
C95         C  0.36769584  0.79188978  0.29664404    -0.13600
C96         C  0.34489567  0.74584338  0.28796500     0.00000
C97         C  0.36087424  0.70027265  0.30231985    -0.12100
C98         C  0.39777609  0.70082088  0.32515146     0.02500
C99         C  0.41963961  0.74713273  0.33305812    -0.11500
H100        H  0.35677496  0.82695303  0.28555632     0.08100
H101        H  0.34464686  0.66410377  0.29582633     0.05700
H102        H  0.44913088  0.74734815  0.34970581     0.05500
C103        C  0.81837958  0.08340604  0.03999551     0.02500
C104        C  0.81808716  0.12930782  0.02180424    -0.13600
C105        C  0.77053520  0.14987062  0.01200555     0.00000
C106        C  0.72365248  0.12470588  0.02213381    -0.12100
C107        C  0.72326314  0.08040992  0.04111329     0.02500
C108        C  0.77056496  0.05930583  0.04834996    -0.11500
H109        H  0.85417446  0.14994793  0.01630091     0.08100
H110        H  0.68704743  0.14178371  0.01689512     0.05700
H111        H  0.76960499  0.02559041  0.06298832     0.05500
C112        C  0.80951414  0.09155351  0.30297044     0.02500
C113        C  0.76190320  0.07551355  0.31769618    -0.13600
C114        C  0.71578793  0.09882269  0.31155710     0.00000
C115        C  0.71620139  0.13943011  0.29010185    -0.12100
C116        C  0.76323993  0.15673148  0.27381260     0.02500
C117        C  0.81039721  0.13287191  0.28124669    -0.11500
H118        H  0.76014893  0.04383974  0.33405277     0.08100
H119        H  0.67936745  0.15728636  0.28630505     0.05700
H120        H  0.84746502  0.14647852  0.27053166     0.05500
C121        C  0.88562961  0.29825693  0.13141035     0.02500
C122        C  0.84966326  0.29577419  0.15861700    -0.13600
C123        C  0.83388364  0.24872980  0.17183492     0.00000
C124        C  0.85205668  0.20452359  0.15615444    -0.12100
C125        C  0.88930201  0.20660729  0.12984834     0.02500
C126        C  0.90376594  0.25336114  0.11658846    -0.11500
H127        H  0.83736263  0.33036660  0.17094533     0.08100
H128        H  0.84030263  0.16772935  0.16583641     0.05700
H129        H  0.93450856  0.25477392  0.09756803     0.05500
C130        C  0.88724850  0.30054296  0.37973933     0.02500
C131        C  0.85067987  0.30100712  0.40654397    -0.13600
C132        C  0.83642616  0.25598613  0.42300064     0.00000
C133        C  0.85773227  0.21011702  0.41128724    -0.12100
C134        C  0.89459616  0.20922521  0.38463746     0.02500
C135        C  0.90801888  0.25416935  0.36852623    -0.11500
H136        H  0.83475435  0.33689812  0.41541679     0.08100
H137        H  0.84829421  0.17530220  0.42419145     0.05700
H138        H  0.93820365  0.25350270  0.34917397     0.05500
Zr139      Zr  0.02756859  0.92652609  0.15711880     2.17500
O140        O  0.98535845  0.85457854  0.18492180    -0.51900
O141        O  0.11083983  0.91542793  0.17955033    -0.75100
O142        O  0.06849923  0.85041908  0.13165099    -0.81900
O143        O  0.97158057  0.03479269  0.21307258    -0.83600
O144        O  0.11589719  0.88861142  0.09203461    -0.79300
O145        O  0.00286442  0.95343399  0.21073620    -0.90900
O146        O  0.16078148  0.97941897  0.15725698    -0.76900
O147        O  0.09239375  0.95304617  0.11787955    -0.86400
O148        O  0.04845127  0.01382385  0.16496069    -0.86100
O149        O  0.98607818  0.91388939  0.10927441    -0.72800
O150        O  0.94660508  0.97195808  0.15404253    -0.84900
Zr151      Zr  0.99077281  0.07506225  0.07396769     2.26400
Zr152      Zr  0.05279660  0.94220752  0.07074736     2.06300
Zr153      Zr  0.96940164  0.05930830  0.16084560     2.10000
Zr154      Zr  0.11228900  0.03898574  0.12536304     1.78800
O155        O  0.88544985  0.06372520  0.19192120    -0.93700
O156        O  0.18866804  0.02028587  0.08946862    -0.41600
O157        O  0.03348127  0.08799256  0.12131304    -0.78200
O158        O  0.07295740  0.03083626  0.07637141    -0.96900
O159        O  0.97347376  0.98754197  0.06728221    -0.90200
O160        O  0.92739669  0.04863005  0.11437284    -0.93000
C161        C  0.15459582  0.93892734  0.17460321     1.00700
C162        C  0.98671308  0.99416705  0.22535346     1.13700
C163        C  0.10355954  0.84911233  0.10818060     1.04400
O164        O  0.12770072  0.94590140  0.03178137    -0.95200
O165        O  0.03245742  0.95644231  0.01926644    -0.90900
O166        O  0.99935664  0.03705953  0.02165854    -0.84100
C167        C  0.01261416  0.99519814  0.00724496     1.11100
O168        O  0.86221595  0.88580614  0.12426683    -0.97100
Zr169      Zr  0.90726281  0.96298193  0.10515968     1.88900
O170        O  0.90852995  0.08783842  0.05098221    -0.73800
O171        O  0.02782198  0.85819306  0.05292025    -0.53100
O172        O  0.88855720  0.90956106  0.06089930    -0.97700
O173        O  0.82603201  0.97869909  0.13756625    -0.55000
O174        O  0.86025915  0.02085020  0.07079492    -0.74300
C175        C  0.86576388  0.06248201  0.05429789     0.98000
O176        O  0.03705925  0.14213060  0.04355208    -0.63100
O177        O  0.00913433  0.13119171  0.18581679    -0.57900
O178        O  0.94394944  0.15137240  0.09561270    -0.94600
O179        O  0.92757516  0.13496224  0.14768274    -0.93000
O180        O  0.13597247  0.09159159  0.16891161    -0.93400
O181        O  0.16087870  0.11597677  0.11017399    -0.92200
C182        C  0.92240349  0.16166195  0.12334838     1.16900
H183        H  0.06296744  0.01955149  0.18474242     0.32800
H184        H  0.09732889  0.04168952  0.05916887     0.43700
H185        H  0.89534080  0.06780127  0.11509648     0.37200
H186        H  0.97865386  0.87813097  0.10668376     0.33700
H187        H  0.21872988  0.02723527  0.10180799     0.25500
H188        H  0.99504618  0.86394535  0.04287179     0.31400
H189        H  0.90042461  0.92964877  0.04199771     0.37300
H190        H  0.17074331  0.07903790  0.17363585     0.31800
H191        H  0.98258459  0.14222269  0.20262431     0.30600
H192        H  0.88666805  0.09571895  0.20411851     0.32300
H193        H  0.79959661  0.98431518  0.12240468     0.31300
H194        H  0.14273056  0.13012521  0.09260639     0.35300
H195        H  0.06436962  0.12404552  0.03005536     0.28000
H196        H  0.01447432  0.83321431  0.19114033     0.32300
H197        H  0.83008566  0.88408991  0.11311088     0.35100
H198        H  0.03733113  0.11608162  0.19716443     0.27700
H199        H  0.01191693  0.15389903  0.02881822     0.40600
H200        H  0.13722818  0.90987394  0.02751357     0.30600
H201        H  0.18844602  0.98275234  0.08713197     0.38300
H202        H  0.83061498  0.01253992  0.14716193     0.30100
H203        H  0.05403981  0.84991885  0.03531249     0.30200
H204        H  0.96985484  0.83462923  0.16840132     0.30400
Zr205      Zr  0.98363357  0.07346179  0.32550245     2.17500
O206        O  0.02723221  0.14301187  0.29605925    -0.51900
O207        O  0.90071993  0.08867257  0.30611004    -0.75100
O208        O  0.98794211  0.04030314  0.27196347    -0.81900
O209        O  0.93212406  0.13635670  0.40221471    -0.83600
O210        O  0.00091942  0.95442096  0.27095651    -0.79300
O211        O  0.94282311  0.15093288  0.34965066    -0.90900
O212        O  0.85136271  0.02568667  0.33014781    -0.76900
O213        O  0.95979595  0.98709328  0.31950274    -0.86400
O214        O  0.92432485  0.04926607  0.36871078    -0.86100
O215        O  0.06378117  0.02553774  0.32188104    -0.72800
O216        O  0.03296971  0.08480258  0.36995855    -0.84900
Zr217      Zr  0.02583818  0.92422694  0.40511909     2.26400
Zr218      Zr  0.03743623  0.93814350  0.31801099     2.06300
Zr219      Zr  0.97303088  0.05834787  0.41249582     2.10000
Zr220      Zr  0.89934930  0.96427759  0.36111249     1.78800
O221        O  0.01169087  0.13022171  0.43807643    -0.93700
O222        O  0.86844677  0.91076942  0.31994073    -0.41600
O223        O  0.94576027  0.97186903  0.40740878    -0.78200
O224        O  0.97674234  0.91188695  0.36042204    -0.96900
O225        O  0.08443496  0.94834226  0.36214780    -0.90200
O226        O  0.05194960  0.01080641  0.41102597    -0.93000
C227        C  0.85710932  0.06654679  0.31306210     1.00700
C228        C  0.92532546  0.16281625  0.37798463     1.13700
C229        C  0.99107539  0.99646866  0.25822924     1.04400
O230        O  0.00949085  0.85499095  0.30034069    -0.95200
O231        O  0.10106147  0.87846624  0.33154906    -0.90900
O232        O  0.06901623  0.84946864  0.37917671    -0.84100
C233        C  0.09815026  0.84490674  0.35309949     1.11100
O234        O  0.15674302  0.10937217  0.34860257    -0.97100
Zr235      Zr  0.11045264  0.03301993  0.36788432     1.88900
O236        O  0.11033915  0.90826381  0.42255954    -0.73800
O237        O  0.10793296  0.94012957  0.27582056    -0.53100
O238        O  0.18231844  0.01116416  0.32920170    -0.97700
O239        O  0.14727428  0.08521498  0.40764444    -0.55000
O240        O  0.15886812  0.96840873  0.39523888    -0.74300
C241        C  0.15401272  0.92848133  0.41301575     0.98000
O242        O  0.98260612  0.85332767  0.43343693    -0.63100
O243        O  0.89229243  0.05855927  0.44699036    -0.57900
O244        O  0.01742141  0.95161520  0.45972674    -0.94600
O245        O  0.98649690  0.03295303  0.46328374    -0.93000
O246        O  0.82478797  0.98343612  0.39836871    -0.93400
O247        O  0.85187103  0.88948871  0.38171007    -0.92200
C248        C  0.00427968  0.99281824  0.47477965     1.16900
H249        H  0.89321359  0.06987138  0.37130774     0.32800
H250        H  0.96775505  0.87635045  0.35848425     0.43700
H251        H  0.07071912  0.01617767  0.42932888     0.37200
H252        H  0.08574520  0.03581359  0.30349805     0.33700
H253        H  0.83188956  0.92161814  0.31838492     0.25500
H254        H  0.09993922  0.91208410  0.26149948     0.31400
H255        H  0.18070195  0.97361246  0.32725289     0.37300
H256        H  0.79909223  0.00001173  0.38573080     0.31800
H257        H  0.89556718  0.08791587  0.46125430     0.30600
H258        H  0.98554473  0.13990582  0.45545083     0.32300
H259        H  0.15831676  0.06083522  0.42345276     0.31300
H260        H  0.86931083  0.87995778  0.40063322     0.35300
H261        H  0.95288193  0.86907952  0.44620662     0.28000
H262        H  0.06000576  0.12788872  0.28632499     0.32300
H263        H  0.19410270  0.10285452  0.35105205     0.35100
H264        H  0.86482635  0.06891241  0.43343071     0.27700
H265        H  0.96620808  0.83373071  0.41711024     0.40600
H266        H  0.97194536  0.85915262  0.29746501     0.30600
H267        H  0.88740666  0.92301364  0.30021026     0.38300
H268        H  0.11699230  0.10326166  0.41839155     0.30100
H269        H  0.10285394  0.97159379  0.26367916     0.30200
H270        H  0.03859911  0.16635746  0.31234159     0.30400
C271        C  0.20210422  0.91725075  0.18827664     0.02500
C272        C  0.25037457  0.94081060  0.18006289    -0.13600
C273        C  0.29745472  0.91834662  0.18682418     0.00000
C274        C  0.29630035  0.87341481  0.20511742    -0.12100
C275        C  0.24892241  0.84925680  0.21509999     0.02500
C276        C  0.20171846  0.87101794  0.20594016    -0.11500
H277        H  0.25175844  0.97506689  0.16589261     0.08100
H278        H  0.33255223  0.85519270  0.20996442     0.05700
H279        H  0.16529155  0.85096436  0.21149678     0.05500
C280        C  0.20261547  0.90363244  0.42151247     0.02500
C281        C  0.20352635  0.86249434  0.44307230    -0.13600
C282        C  0.25157442  0.84112845  0.45092281     0.00000
C283        C  0.29804034  0.86100545  0.43517970    -0.12100
C284        C  0.29661524  0.90098613  0.41317516     0.02500
C285        C  0.24942437  0.92128576  0.40646825    -0.11500
H286        H  0.16701837  0.84746773  0.45374146     0.08100
H287        H  0.33565236  0.84547066  0.43955221     0.05700
H288        H  0.24977397  0.95261069  0.38990136     0.05500
Zr289      Zr  0.47472962  0.91311981  0.14635071     2.17500
O290        O  0.50279598  0.83027990  0.16425035    -0.51900
O291        O  0.38663686  0.90801147  0.16984410    -0.75100
O292        O  0.47813156  0.92279918  0.20414878    -0.81900
O293        O  0.43509738  0.87559897  0.06280990    -0.83600
O294        O  0.47753745  0.00843135  0.21019799    -0.79300
O295        O  0.43670083  0.84661595  0.11295906    -0.90900
O296        O  0.34710235  0.98161892  0.15686625    -0.76900
O297        O  0.45275584  0.99815749  0.16149832    -0.86400
O298        O  0.42814244  0.95181619  0.10696673    -0.86100
O299        O  0.55730171  0.95516948  0.15173477    -0.72800
O300        O  0.53552513  0.91227743  0.10016376    -0.84900
Zr301      Zr  0.54531825  0.07921327  0.07917697     2.26400
Zr302      Zr  0.53295812  0.04071126  0.16600336     2.06300
Zr303      Zr  0.48734197  0.95092362  0.06105743     2.10000
Zr304      Zr  0.40615347  0.03578692  0.12260357     1.78800
O305        O  0.52796868  0.88138010  0.03011998    -0.93700
O306        O  0.37422542  0.09408393  0.16428703    -0.41600
O307        O  0.46330542  0.03658999  0.07476781    -0.78200
O308        O  0.48666521  0.08100203  0.12643745    -0.96900
O309        O  0.59141086  0.04300915  0.11964165    -0.90200
O310        O  0.56807536  0.99384795  0.06503137    -0.93000
C311        C  0.34712078  0.93772526  0.17061606     1.00700
C312        C  0.42409465  0.84252011  0.08420484     1.13700
C313        C  0.47457161  0.96334890  0.22144334     1.04400
O314        O  0.50472604  0.10945976  0.20172138    -0.95200
O315        O  0.58220321  0.11828617  0.16223176    -0.90900
O316        O  0.58135668  0.14706658  0.11192896    -0.84100
C317        C  0.59257229  0.15166733  0.14084962     1.11100
O318        O  0.66043032  0.88470210  0.12284761    -0.97100
Zr319      Zr  0.61562791  0.95935255  0.10441316     1.88900
O320        O  0.63338532  0.08784895  0.05667828    -0.73800
O321        O  0.60367192  0.01778315  0.19770686    -0.53100
O322        O  0.68111432  0.98125588  0.14011943    -0.97700
O323        O  0.65222303  0.90277818  0.06285462    -0.55000
O324        O  0.67478270  0.01651712  0.07165720    -0.74300
C325        C  0.67389771  0.05982333  0.05713579     0.98000
O326        O  0.51214692  0.15920660  0.05999172    -0.63100
O327        O  0.41576133  0.96653910  0.02849516    -0.57900
O328        O  0.54590100  0.06954045  0.02087161    -0.94600
O329        O  0.52145656  0.98739727  0.01279739    -0.93000
O330        O  0.33531555  0.01989082  0.08953965    -0.93400
O331        O  0.36653675  0.11276803  0.10358415    -0.92200
C332        C  0.53744544  0.03099542  0.00300496     1.16900
H333        H  0.39596604  0.93422932  0.10407582     0.32800
H334        H  0.47905181  0.11593257  0.13230592     0.43700
H335        H  0.59085676  0.99193099  0.04591187     0.37200
H336        H  0.57467063  0.93880263  0.16818194     0.33700
H337        H  0.33572031  0.09151441  0.16508027     0.25500
H338        H  0.61851400  0.05068590  0.20392931     0.31400
H339        H  0.69091977  0.01696797  0.13499371     0.37300
H340        H  0.31690170  0.98952015  0.09868519     0.31800
H341        H  0.38370252  0.96050829  0.04255743     0.30600
H342        H  0.50959204  0.88059937  0.01070542     0.32300
H343        H  0.65983354  0.92484875  0.04423298     0.31300
H344        H  0.39648848  0.13382733  0.09515173     0.35300
H345        H  0.48016144  0.14948683  0.05011466     0.28000
H346        H  0.47730479  0.82158661  0.18216415     0.32300
H347        H  0.69772657  0.88945766  0.11551302     0.35100
H348        H  0.41598393  0.00374544  0.02466638     0.27700
H349        H  0.49916767  0.17806169  0.07917288     0.40600
H350        H  0.47332235  0.12367317  0.19308469     0.30600
H351        H  0.38325982  0.07746469  0.18389564     0.38300
H352        H  0.62254166  0.88136552  0.05756695     0.30100
H353        H  0.58631830  0.00363240  0.21735814     0.30200
H354        H  0.53569353  0.83728082  0.17390042     0.30400
Zr355      Zr  0.42256687  0.96947861  0.33321204     2.17500
O356        O  0.34120341  0.00127364  0.31543182    -0.51900
O357        O  0.40972444  0.88206590  0.31980956    -0.75100
O358        O  0.43518131  0.96783544  0.27482173    -0.81900
O359        O  0.37559292  0.93977778  0.42051605    -0.83600
O360        O  0.52290497  0.96213509  0.26447963    -0.79300
O361        O  0.35049261  0.93785962  0.37062045    -0.90900
O362        O  0.47445133  0.83788489  0.34071810    -0.76900
O363        O  0.50790013  0.93843742  0.31827101    -0.86400
O364        O  0.45492677  0.92689975  0.37667057    -0.86100
O365        O  0.47289106  0.04473313  0.31882509    -0.72800
O366        O  0.42223755  0.03311804  0.37393391    -0.84900
Zr367      Zr  0.59064534  0.02973372  0.39073622     2.26400
Zr368      Zr  0.55857606  0.01189409  0.30514785     2.06300
Zr369      Zr  0.45410292  0.98875709  0.41730848     2.10000
Zr370      Zr  0.53864120  0.89544166  0.36152151     1.78800
O371        O  0.38189182  0.03442224  0.44531428    -0.93700
O372        O  0.58898582  0.85113036  0.31899213    -0.41600
O373        O  0.53966195  0.95523946  0.40431208    -0.78200
O374        O  0.59246103  0.96848811  0.34844532    -0.96900
O375        O  0.56091416  0.07193835  0.34650683    -0.90200
O376        O  0.50551043  0.06229364  0.40435259    -0.93000
C377        C  0.43206806  0.84054632  0.32664150     1.00700
C378        C  0.34405260  0.92737051  0.40037550     1.13700
C379        C  0.47661848  0.96135226  0.25580071     1.04400
O380        O  0.63067736  0.97282097  0.27310968    -0.95200
O381        O  0.63535238  0.06333336  0.30411264    -0.90900
O382        O  0.66115816  0.06357871  0.35385500    -0.84100
C383        C  0.66721733  0.07473253  0.32428659     1.11100
O384        O  0.40269284  0.14916047  0.34205081    -0.97100
Zr385      Zr  0.47777494  0.10560937  0.36072391     1.88900
O386        O  0.60777530  0.11537382  0.40459417    -0.73800
O387        O  0.54721244  0.07760319  0.26612455    -0.53100
O388        O  0.50438514  0.16454640  0.31824885    -0.97700
O389        O  0.42552022  0.15196276  0.40178579    -0.55000
O390        O  0.54487372  0.15999766  0.38221220    -0.74300
C391        C  0.58652889  0.15696642  0.39715047     0.98000
O392        O  0.66982471  0.99281040  0.40841175    -0.63100
O393        O  0.46513241  0.92468558  0.45745706    -0.57900
O394        O  0.57740941  0.03459027  0.44932008    -0.94600
O395        O  0.48959292  0.02759358  0.46113003    -0.93000
O396        O  0.51872068  0.83163337  0.40223016    -0.93400
O397        O  0.61664972  0.85748235  0.38016225    -0.92200
C398        C  0.53581968  0.03515673  0.46878955     1.16900
H399        H  0.43505428  0.89699179  0.38309991     0.32800
H400        H  0.62795958  0.95789060  0.34265165     0.43700
H401        H  0.50517496  0.08718032  0.42097151     0.37200
H402        H  0.45922797  0.06101958  0.30099313     0.33700
H403        H  0.58292302  0.81453175  0.32362401     0.25500
H404        H  0.58232428  0.08286404  0.25519034     0.31400
H405        H  0.54291608  0.16615724  0.31774301     0.37300
H406        H  0.51744979  0.79886205  0.39083668     0.31800
H407        H  0.43057894  0.92193649  0.46948170     0.30600
H408        H  0.37992881  0.02072471  0.46697469     0.32300
H409        H  0.45030875  0.16261538  0.41701058     0.31300
H410        H  0.64182354  0.88595214  0.38059586     0.35300
H411        H  0.65767934  0.96219215  0.42045242     0.28000
H412        H  0.32750982  0.97251021  0.30359132     0.32300
H413        H  0.41029626  0.18601763  0.34364155     0.35100
H414        H  0.46914766  0.89216198  0.44578718     0.27700
H415        H  0.68895094  0.97913980  0.38910599     0.40600
H416        H  0.63424175  0.93850837  0.28229591     0.30600
H417        H  0.56999140  0.85760242  0.30020515     0.38300
H418        H  0.40360471  0.12557745  0.41299817     0.30100
H419        H  0.52702943  0.06085752  0.25041886     0.30200
H420        H  0.35199752  0.02701163  0.29921309     0.30400
C421        C  0.61564965  0.19964560  0.15179914     0.02500
C422        C  0.65271588  0.19926206  0.17447841    -0.13600
C423        C  0.66837662  0.24491304  0.18883435     0.00000
C424        C  0.64524066  0.29080033  0.18030020    -0.12100
C425        C  0.60685249  0.29130835  0.15844328     0.02500
C426        C  0.59352876  0.24584056  0.14389182    -0.11500
H427        H  0.66925645  0.16318101  0.18087054     0.08100
H428        H  0.65591265  0.32587653  0.19147435     0.05700
H429        H  0.56402668  0.24595152  0.12724991     0.05500
C430        C  0.61561734  0.29652448  0.40262352     0.02500
C431        C  0.65154954  0.29732122  0.42606487    -0.13600
C432        C  0.66970926  0.25152008  0.43925618     0.00000
C433        C  0.64949086  0.20517139  0.42885075    -0.12100
C434        C  0.61197074  0.20456726  0.40630730     0.02500
C435        C  0.59724980  0.25010370  0.39272132    -0.11500
H436        H  0.66538314  0.33376911  0.43382668     0.08100
H437        H  0.66144590  0.16984043  0.43918276     0.06900
H438        H  0.56867916  0.24980245  0.37550128     0.05500
Zr439      Zr  0.02905950  0.57479591  0.15126251     2.17500
O440        O  0.98468178  0.64459575  0.18007442    -0.51900
O441        O  0.11228211  0.59051662  0.17002563    -0.75100
O442        O  0.02725970  0.54024097  0.20456324    -0.81900
O443        O  0.08027644  0.63794499  0.07474597    -0.83600
O444        O  0.01167014  0.45473696  0.20560973    -0.79300
O445        O  0.07216039  0.65144279  0.12745856    -0.90900
O446        O  0.16121386  0.52721362  0.14596073    -0.76900
O447        O  0.05274882  0.48837083  0.15689360    -0.86400
O448        O  0.08744132  0.55065625  0.10767367    -0.86100
O449        O  0.94896169  0.52682767  0.15495376    -0.72800
O450        O  0.97892828  0.58653561  0.10705439    -0.84900
Zr451      Zr  0.98595688  0.42575313  0.07181903     2.26400
Zr452      Zr  0.97503525  0.43939925  0.15862512     2.06300
Zr453      Zr  0.03828437  0.56033621  0.06417070     2.10000
Zr454      Zr  0.11286820  0.46592386  0.11504282     1.78800
O455        O  0.99792719  0.63191279  0.03932346    -0.93700
O456        O  0.14315693  0.41188236  0.15608851    -0.41600
O457        O  0.06586997  0.47379263  0.06898987    -0.78200
O458        O  0.03558794  0.41328682  0.11613262    -0.96900
O459        O  0.92741405  0.44961377  0.11480400    -0.90200
O460        O  0.95972885  0.51230751  0.06596435    -0.93000
C461        C  0.15575825  0.56819634  0.16297738     1.00700
C462        C  0.08887530  0.66359129  0.09902663     1.13700
C463        C  0.02322873  0.49633016  0.21824090     1.04400
O464        O  0.00341480  0.35669843  0.17677291    -0.95200
O465        O  0.91165189  0.37897777  0.14569174    -0.90900
O466        O  0.94284953  0.35096436  0.09768437    -0.84100
C467        C  0.91422861  0.34585453  0.12388946     1.11100
O468        O  0.85558534  0.61058156  0.12913665    -0.97100
Zr469      Zr  0.90149912  0.53438048  0.10921483     1.88900
O470        O  0.90161880  0.40970553  0.05463538    -0.73800
O471        O  0.90386272  0.44224486  0.20033437    -0.53100
O472        O  0.83167943  0.51384464  0.14946814    -0.97700
O473        O  0.86333259  0.58396651  0.06866018    -0.55000
O474        O  0.85257680  0.46903415  0.08241806    -0.74300
C475        C  0.85783085  0.42932441  0.06438777     0.98000
O476        O  0.02814212  0.35385525  0.04405938    -0.63100
O477        O  0.11860599  0.56400473  0.02947379    -0.57900
O478        O  0.99319736  0.45212207  0.01715880    -0.94600
O479        O  0.02466286  0.53327793  0.01347970    -0.93000
O480        O  0.18766352  0.48663122  0.07831746    -0.93400
O481        O  0.16087579  0.39202653  0.09354355    -0.92200
C482        C  0.00659176  0.49313673  0.00202543     1.16900
H483        H  0.11876245  0.57092382  0.10495353     0.32800
H484        H  0.04461684  0.37776101  0.11805103     0.43700
H485        H  0.94080997  0.51747783  0.04770513     0.37200
H486        H  0.92725481  0.53709069  0.17344605     0.33700
H487        H  0.18155030  0.41618240  0.15417460     0.25500
H488        H  0.91026315  0.41300840  0.21412643     0.31400
H489        H  0.83595691  0.47700740  0.15353325     0.37300
H490        H  0.21768584  0.48753618  0.09132293     0.31800
H491        H  0.11641331  0.59634556  0.01771758     0.30600
H492        H  0.02248932  0.64052993  0.02093990     0.32300
H493        H  0.85019036  0.55859364  0.05411933     0.31300
H494        H  0.13700655  0.37572960  0.07956547     0.35300
H495        H  0.05921483  0.36872529  0.03212483     0.28000
H496        H  0.01082826  0.65790787  0.19368752     0.32300
H497        H  0.81873088  0.60569675  0.12475392     0.35100
H498        H  0.14660484  0.56990860  0.04355687     0.27700
H499        H  0.04250348  0.33328787  0.06071831     0.40600
H500        H  0.04042225  0.36163979  0.18078204     0.30600
H501        H  0.13130753  0.42926069  0.17601067     0.38300
H502        H  0.89339043  0.60017395  0.05647273     0.30100
H503        H  0.91014358  0.47268386  0.21315661     0.30200
H504        H  0.95807192  0.62786915  0.19475566     0.30400
Zr505      Zr  0.98629689  0.42639620  0.31936132     2.17500
O506        O  0.02759406  0.35492734  0.29065471    -0.51900
O507        O  0.90307860  0.41439403  0.29714331    -0.75100
O508        O  0.94601457  0.35000711  0.34453810    -0.81900
O509        O  0.04533175  0.53318541  0.26325420    -0.83600
O510        O  0.89776829  0.38879941  0.38345957    -0.79300
O511        O  0.01031442  0.45333455  0.26568631    -0.90900
O512        O  0.85368539  0.47922932  0.31880347    -0.76900
O513        O  0.92121617  0.45312602  0.35853935    -0.86400
O514        O  0.96600368  0.51384690  0.31123265    -0.86100
O515        O  0.02739658  0.41338142  0.36740807    -0.72800
O516        O  0.06776718  0.47086077  0.32266841    -0.84900
Zr517      Zr  0.02342445  0.57442949  0.40225595     2.26400
Zr518      Zr  0.96040586  0.44182914  0.40581292     2.06300
Zr519      Zr  0.04579858  0.55831300  0.31543213     2.10000
Zr520      Zr  0.90203103  0.53920006  0.35077257     1.78800
O521        O  0.13161165  0.56018087  0.28638648    -0.93700
O522        O  0.82267550  0.52402240  0.38492289    -0.41600
O523        O  0.98143553  0.58732417  0.35469287    -0.78200
O524        O  0.94092923  0.53051220  0.39991028    -0.96900
O525        O  0.03996568  0.48693123  0.40927707    -0.90200
O526        O  0.08701487  0.54768371  0.36212791    -0.93000
C527        C  0.85952425  0.43823578  0.30183848     1.00700
C528        C  0.02820582  0.49341543  0.25102865     1.13700
C529        C  0.91079224  0.34889049  0.36787917     1.04400
O530        O  0.88516585  0.44820592  0.44440586    -0.95200
O531        O  0.98258838  0.45560842  0.45709815    -0.90900
O532        O  0.01473463  0.53662582  0.45465095    -0.84100
C533        C  0.00184204  0.49471688  0.46913998     1.11100
O534        O  0.15250216  0.38524638  0.35293453    -0.97100
Zr535      Zr  0.10654360  0.46203643  0.37183801     1.88900
O536        O  0.10568740  0.58781921  0.42527892    -0.73800
O537        O  0.98056226  0.35695487  0.42461856    -0.53100
O538        O  0.12290960  0.40784504  0.41625595    -0.97700
O539        O  0.18939478  0.47800613  0.34108482    -0.55000
O540        O  0.15349515  0.51999861  0.40628165    -0.74300
C541        C  0.14827817  0.56209426  0.42235155     0.98000
O542        O  0.97601103  0.64295035  0.43052363    -0.63100
O543        O  0.00982494  0.63011716  0.28824029    -0.57900
O544        O  0.07116232  0.65023180  0.38096249    -0.94600
O545        O  0.08688531  0.63437534  0.32878660    -0.93000
O546        O  0.87982330  0.59361026  0.30773812    -0.93400
O547        O  0.85543466  0.61674736  0.36727638    -0.92200
C548        C  0.09233091  0.66080938  0.35320805     1.16900
H549        H  0.95170595  0.51973767  0.29139970     0.32800
H550        H  0.91653384  0.54154557  0.41703672     0.43700
H551        H  0.11908791  0.56681147  0.36149915     0.37200
H552        H  0.03449196  0.37758770  0.37013849     0.33700
H553        H  0.79432433  0.52476184  0.37067112     0.25500
H554        H  0.01259297  0.36131168  0.43562106     0.31400
H555        H  0.09541217  0.41661615  0.43304871     0.37300
H556        H  0.84681434  0.57936708  0.30118211     0.31800
H557        H  0.03566976  0.63718502  0.27020728     0.30600
H558        H  0.13155978  0.59122115  0.27321389     0.32300
H559        H  0.21607372  0.47555454  0.35639304     0.31300
H560        H  0.87569662  0.63113446  0.38386033     0.35300
H561        H  0.94081835  0.62877602  0.43632566     0.28000
H562        H  0.99817955  0.33432846  0.28407144     0.32300
H563        H  0.18310558  0.38240613  0.36538261     0.35100
H564        H  0.97922605  0.61608340  0.27863120     0.27700
H565        H  0.99216422  0.64545424  0.45067006     0.40600
H566        H  0.87743237  0.41267291  0.45104195     0.30600
H567        H  0.82493738  0.48783680  0.39121816     0.38300
H568        H  0.18875476  0.51459748  0.33554290     0.30100
H569        H  0.95280580  0.34965151  0.44154977     0.30200
H570        H  0.04266162  0.33407161  0.30692436     0.30400
C571        C  0.20350882  0.59302652  0.17296364     0.02500
C572        C  0.20286726  0.63364187  0.19516793    -0.13600
C573        C  0.25009840  0.65737682  0.20260679     0.00000
C574        C  0.29707287  0.64005309  0.18619540    -0.12100
C575        C  0.29731812  0.59968775  0.16449740     0.02500
C576        C  0.25096082  0.57730702  0.15787334    -0.11500
H577        H  0.16587263  0.64688623  0.20619024     0.08100
H578        H  0.33398450  0.65758275  0.19018142     0.05700
H579        H  0.25241204  0.54621848  0.14109849     0.05500
C580        C  0.19577392  0.58298120  0.43664272     0.02500
C581        C  0.19620418  0.62904774  0.45463128    -0.13600
C582        C  0.24371534  0.64936615  0.46459830     0.00000
C583        C  0.29053525  0.62378324  0.45496115    -0.12100
C584        C  0.29089683  0.57940434  0.43609835     0.02500
C585        C  0.24355334  0.55858217  0.42857437    -0.11500
H586        H  0.16024272  0.64999132  0.45988558     0.08100
H587        H  0.32714611  0.64068581  0.46036746     0.05700
H588        H  0.24447421  0.52486857  0.41393379     0.05500
Zr589      Zr  0.59025540  0.46794841  0.14335622     2.17500
O590        O  0.67187281  0.49927719  0.16107437    -0.51900
O591        O  0.60399842  0.38069471  0.15648410    -0.75100
O592        O  0.57733057  0.46682452  0.20167559    -0.81900
O593        O  0.63677277  0.43740129  0.05624091    -0.83600
O594        O  0.48954324  0.46176402  0.21207697    -0.79300
O595        O  0.66192101  0.43583237  0.10612066    -0.90900
O596        O  0.53797640  0.33667673  0.13680174    -0.76900
O597        O  0.50478859  0.43778612  0.15872048    -0.86400
O598        O  0.55749758  0.42509299  0.10010064    -0.86100
O599        O  0.54044155  0.54344350  0.15753983    -0.72800
O600        O  0.59095296  0.53140632  0.10254714    -0.84900
Zr601      Zr  0.42244903  0.52859672  0.08580124     2.26400
Zr602      Zr  0.45430038  0.51164594  0.17137750     2.06300
Zr603      Zr  0.55869393  0.48691751  0.05932982     2.10000
Zr604      Zr  0.47373255  0.39426599  0.11585933     1.78800
O605        O  0.63335422  0.52984265  0.03194227    -0.93700
O606        O  0.42315611  0.35255717  0.15940752    -0.41600
O607        O  0.47310052  0.45365808  0.07278241    -0.78200
O608        O  0.42014381  0.46772806  0.12830977    -0.96900
O609        O  0.45226817  0.57138034  0.12983560    -0.90200
O610        O  0.50773988  0.56082206  0.07221214    -0.93000
C611        C  0.58098255  0.33925573  0.15027293     1.00700
C612        C  0.66833221  0.42523614  0.07641570     1.13700
C613        C  0.53585107  0.46095349  0.22072368     1.04400
O614        O  0.38220760  0.47339120  0.20387778    -0.95200
O615        O  0.37740851  0.56324694  0.17237576    -0.90900
O616        O  0.35184724  0.56295295  0.12255762    -0.84100
C617        C  0.34573886  0.57470883  0.15205963     1.11100
O618        O  0.61196003  0.64909596  0.13206990    -0.97100
Zr619      Zr  0.53589123  0.60423031  0.11565130     1.88900
O620        O  0.40511010  0.61441945  0.07238488    -0.73800
O621        O  0.46860654  0.57882033  0.20901115    -0.53100
O622        O  0.51389571  0.66219006  0.15939575    -0.97700
O623        O  0.58825824  0.64953155  0.07423420    -0.55000
O624        O  0.46886845  0.65886797  0.09412755    -0.74300
C625        C  0.42688824  0.65596007  0.07945049     0.98000
O626        O  0.34443168  0.49146135  0.06662233    -0.63100
O627        O  0.54617164  0.42447390  0.01847993    -0.57900
O628        O  0.43673652  0.53337255  0.02721841    -0.94600
O629        O  0.52464637  0.52744350  0.01548740    -0.93000
O630        O  0.49110013  0.33011097  0.07509178    -0.93400
O631        O  0.39564660  0.35481784  0.09839774    -0.92200
C632        C  0.47837143  0.53461663  0.00778633     1.16900
H633        H  0.57713644  0.39502097  0.09370934     0.32800
H634        H  0.38459194  0.45725797  0.13410763     0.43700
H635        H  0.50813880  0.58593068  0.05572017     0.37200
H636        H  0.55454361  0.55968349  0.17523813     0.33700
H637        H  0.42449143  0.31586878  0.15398737     0.25500
H638        H  0.43451375  0.58357506  0.22126939     0.31400
H639        H  0.47697184  0.67157669  0.15769000     0.37300
H640        H  0.49634911  0.29796717  0.08653026     0.31800
H641        H  0.58069875  0.42140647  0.00646030     0.30600
H642        H  0.63524672  0.51626829  0.01025095     0.32300
H643        H  0.56277369  0.66663023  0.06168587     0.31300
H644        H  0.37749373  0.38283156  0.08831118     0.35300
H645        H  0.35684213  0.45981381  0.05579141     0.28000
H646        H  0.68451179  0.47109848  0.17383540     0.32300
H647        H  0.60423868  0.68585432  0.12997082     0.35100
H648        H  0.54147112  0.39166673  0.02978407     0.27700
H649        H  0.32343785  0.47952987  0.08574102     0.40600
H650        H  0.38428026  0.43662628  0.19873048     0.30600
H651        H  0.44486168  0.35553289  0.17735397     0.38300
H652        H  0.60379885  0.62241122  0.06030055     0.30100
H653        H  0.49124064  0.56330479  0.22390935     0.30200
H654        H  0.66134731  0.52632578  0.17649078     0.30400
Zr655      Zr  0.53883236  0.41398691  0.33021796     2.17500
O656        O  0.50877925  0.33166667  0.31268777    -0.51900
O657        O  0.62679269  0.40745363  0.30682011    -0.75100
O658        O  0.53561778  0.42349168  0.27248682    -0.81900
O659        O  0.57900814  0.37640809  0.41370209    -0.83600
O660        O  0.53398181  0.50913197  0.26581416    -0.79300
O661        O  0.57677628  0.34742610  0.36359560    -0.90900
O662        O  0.66705229  0.48007050  0.32082876    -0.76900
O663        O  0.56092831  0.49911167  0.31504541    -0.86400
O664        O  0.58565053  0.45224650  0.36966520    -0.86100
O665        O  0.45655457  0.45641196  0.32464376    -0.72800
O666        O  0.47799241  0.41271866  0.37630673    -0.84900
Zr667      Zr  0.46888041  0.57987681  0.39747054     2.26400
Zr668      Zr  0.48081495  0.54205358  0.31065321     2.06300
Zr669      Zr  0.52618406  0.45120720  0.41545377     2.10000
Zr670      Zr  0.60801389  0.53604855  0.35398851     1.78800
O671        O  0.48456230  0.38132606  0.44564606    -0.93700
O672        O  0.64280880  0.59172022  0.31157847    -0.41600
O673        O  0.55064638  0.53669637  0.40173111    -0.78200
O674        O  0.52770017  0.58178602  0.35014992    -0.96900
O675        O  0.42240640  0.54401460  0.35700433    -0.90200
O676        O  0.44575148  0.49442214  0.41135288    -0.93000
C677        C  0.66673974  0.43649902  0.30669787     1.00700
C678        C  0.58971590  0.34333339  0.39227863     1.13700
C679        C  0.53796140  0.46379957  0.25498584     1.04400
O680        O  0.50809855  0.61172235  0.27537852    -0.95200
O681        O  0.43113484  0.61938479  0.31483982    -0.90900
O682        O  0.43275017  0.64834557  0.36504481    -0.84100
C683        C  0.42107171  0.65288213  0.33618192     1.11100
O684        O  0.35247690  0.38693372  0.35218801    -0.97100
Zr685      Zr  0.39820033  0.46009590  0.37184393     1.88900
O686        O  0.38074417  0.58713928  0.42038171    -0.73800
O687        O  0.41017237  0.52014861  0.27862623    -0.53100
O688        O  0.33308805  0.48395214  0.33631851    -0.97700
O689        O  0.36078166  0.40102026  0.41171536    -0.55000
O690        O  0.33929983  0.51566388  0.40558472    -0.74300
C691        C  0.34028046  0.55891177  0.42010908     0.98000
O692        O  0.50300844  0.65963604  0.41651229    -0.63100
O693        O  0.59630553  0.46666639  0.44913713    -0.57900
O694        O  0.46854876  0.56995740  0.45581889    -0.94600
O695        O  0.49199247  0.48747227  0.46368042    -0.93000
O696        O  0.67864919  0.52239083  0.38754406    -0.93400
O697        O  0.64614284  0.61361711  0.37327218    -0.92200
C698        C  0.47640875  0.53110444  0.47359018     1.16900
H699        H  0.61779744  0.43461775  0.37255963     0.32800
H700        H  0.53549956  0.61670707  0.34431562     0.43700
H701        H  0.42300054  0.49237647  0.43047586     0.37200
H702        H  0.43923197  0.44024929  0.30810103     0.33700
H703        H  0.67935980  0.58043094  0.30673469     0.25500
H704        H  0.39476846  0.55321071  0.27319022     0.31400
H705        H  0.32110861  0.51834166  0.34320132     0.37300
H706        H  0.69526964  0.48999452  0.38024035     0.31800
H707        H  0.62880068  0.45947999  0.43570687     0.30600
H708        H  0.50355865  0.37908970  0.46478361     0.32300
H709        H  0.35719977  0.42089292  0.43147158     0.31300
H710        H  0.61601439  0.63297808  0.38316242     0.35300
H711        H  0.53078026  0.64920182  0.42984345     0.28000
H712        H  0.53505291  0.32145401  0.29552096     0.32300
H713        H  0.31507231  0.39238188  0.35899574     0.35100
H714        H  0.59679264  0.50401814  0.45235164     0.27700
H715        H  0.52206824  0.67525100  0.39778109     0.40600
H716        H  0.54207106  0.62296319  0.28217765     0.30600
H717        H  0.62482695  0.58089995  0.29312569     0.38300
H718        H  0.38902984  0.37631708  0.41465524     0.30100
H719        H  0.42764010  0.50746020  0.25861242     0.30200
H720        H  0.47703761  0.33954284  0.30204998     0.30400
C721        C  0.25325310  0.79622183  0.97418579     0.85900
C722        C  0.21045418  0.79706008  0.50208239    -0.54300
C723        C  0.21171540  0.75694405  0.52270270     0.08800
C724        C  0.25558340  0.71798592  0.51297610     0.19800
C725        C  0.30417459  0.79139783  0.99095002    -0.55100
C726        C  0.30548784  0.75197167  0.51227966     0.08900
C727        C  0.24609801  0.74438980  0.95854512    -0.54600
C728        C  0.24642935  0.70313108  0.97797666     0.09500
H729        H  0.18290098  0.82820893  0.50579685     0.14000
H730        H  0.25657704  0.68505958  0.52920463    -0.00200
H731        H  0.33468000  0.82001132  0.98889400     0.14300
H732        H  0.24165872  0.74060716  0.93359395     0.14100
C733        C  0.25236191  0.70230740  0.72589284     0.85900
C734        C  0.30284756  0.70470798  0.74315573    -0.54300
C735        C  0.30615053  0.74496123  0.76331574     0.08800
C736        C  0.25822370  0.78118339  0.76348276     0.19800
C737        C  0.20902407  0.70422929  0.75333782    -0.55100
C738        C  0.21243666  0.74487490  0.77364683     0.08900
C739        C  0.24881716  0.75401027  0.70949541    -0.54600
C740        C  0.25096137  0.79560718  0.72852504     0.09500
H741        H  0.33167644  0.67443904  0.74169352     0.14000
H742        H  0.26093347  0.81454542  0.77920568    -0.00200
H743        H  0.17988914  0.67453943  0.75725427     0.14300
H744        H  0.24488103  0.75741871  0.68447026     0.14100
C745        C  0.76099960  0.29675022  0.50169984     0.85900
C746        C  0.80369710  0.29760326  0.97415318    -0.54300
C747        C  0.80263217  0.25739110  0.95359592     0.08800
C748        C  0.75878095  0.21831893  0.96330513     0.19800
C749        C  0.71011947  0.29193674  0.98466431    -0.55100
C750        C  0.70877463  0.25225582  0.96381381     0.08900
C751        C  0.76752605  0.24494391  0.51756922    -0.54600
C752        C  0.76705515  0.20321409  0.99822915     0.09500
H753        H  0.83121672  0.32878460  0.97046166     0.14000
H754        H  0.75793328  0.18531498  0.94712448    -0.00200
H755        H  0.67990658  0.32083900  0.98647452     0.14300
H756        H  0.77185034  0.24136842  0.54254098     0.14100
C757        C  0.76137279  0.20290182  0.75099197     0.85900
C758        C  0.71067993  0.20528269  0.73404132    -0.54300
C759        C  0.70724846  0.24530280  0.71382726     0.08800
C760        C  0.75529661  0.28143841  0.71325357     0.19800
C761        C  0.80439285  0.20441116  0.72336941    -0.55100
C762        C  0.80097801  0.24495445  0.70299668     0.08900
C763        C  0.76534727  0.25467434  0.76722655    -0.54600
C764        C  0.76295922  0.29612742  0.74811991     0.09500
H765        H  0.68179819  0.17505641  0.73565398     0.14000
H766        H  0.75239410  0.31467334  0.69745747    -0.00200
H767        H  0.83344163  0.17464907  0.71950049     0.14300
H768        H  0.76963518  0.25823853  0.79220504     0.14100
C769        C  0.12054909  0.70948591  0.59219416     0.02500
C770        C  0.15724306  0.70993894  0.56545610    -0.13600
C771        C  0.17848708  0.75565217  0.55342734     0.00000
C772        C  0.16462063  0.80086730  0.56971416    -0.12100
C773        C  0.12827714  0.80084968  0.59659780     0.02500
C774        C  0.10767829  0.75464534  0.60822744    -0.11500
H775        H  0.16633183  0.67497200  0.55263987     0.08100
H776        H  0.18048384  0.83660960  0.56055175     0.05700
H777        H  0.07762279  0.75433558  0.62765388     0.05500
C778        C  0.12712688  0.79751152  0.84491795     0.02500
C779        C  0.16363380  0.79538533  0.81791905    -0.13600
C780        C  0.18040208  0.74847796  0.80484657     0.00000
C781        C  0.16305149  0.70410439  0.82065742    -0.12100
C782        C  0.12519264  0.70572949  0.84666618     0.02500
C783        C  0.10925027  0.75237183  0.85956179    -0.11500
H784        H  0.17567336  0.83007946  0.80562773     0.08100
H785        H  0.17577489  0.66745074  0.81117301     0.05700
H786        H  0.07795707  0.75339358  0.87826669     0.05500
C787        C  0.81041591  0.40489170  0.55457753     0.02500
C788        C  0.81000670  0.36433369  0.53259914    -0.13600
C789        C  0.76228657  0.34187575  0.52513735     0.00000
C790        C  0.71569447  0.36034086  0.54140092    -0.12100
C791        C  0.71665547  0.40001240  0.56359109     0.02500
C792        C  0.76353824  0.42111441  0.57019832    -0.11500
H793        H  0.84666867  0.35038969  0.52150260     0.08100
H794        H  0.67832430  0.34402586  0.53721254     0.05700
H795        H  0.76286138  0.45200316  0.58708779     0.05500
C796        C  0.81178678  0.41703162  0.78860295     0.02500
C797        C  0.76358733  0.44057687  0.79694577    -0.13600
C798        C  0.71647325  0.41839431  0.79003413     0.00000
C799        C  0.71754847  0.37357419  0.77160249    -0.12100
C800        C  0.76490180  0.34924492  0.76169661     0.02500
C801        C  0.81209283  0.37079489  0.77096880    -0.11500
H802        H  0.76229700  0.47470350  0.81123212     0.08100
H803        H  0.68126292  0.35554705  0.76662043     0.05700
H804        H  0.84847203  0.35065298  0.76542879     0.05500
C805        C  0.40317039  0.70356762  0.56950780     0.02500
C806        C  0.41846573  0.74906029  0.58289253    -0.13600
C807        C  0.39937367  0.79547996  0.57353509     0.00000
C808        C  0.36290035  0.79642585  0.55037913    -0.12100
C809        C  0.34470340  0.75073468  0.53705912     0.02500
C810        C  0.36502354  0.70429246  0.54732205    -0.11500
H811        H  0.44766047  0.74873682  0.59973276     0.08100
H812        H  0.34873782  0.83290138  0.54288241     0.05700
H813        H  0.35268732  0.66898470  0.53713071     0.05500
C814        C  0.40596547  0.79247284  0.81878751     0.02500
C815        C  0.36794325  0.79182665  0.79667807    -0.13600
C816        C  0.34541431  0.74578423  0.78780107     0.00000
C817        C  0.36115804  0.70021322  0.80223924    -0.12100
C818        C  0.39771411  0.70075776  0.82527897     0.02500
C819        C  0.41926044  0.74708634  0.83341969    -0.11500
H820        H  0.35723580  0.82689372  0.78550890     0.08100
H821        H  0.34506689  0.66405379  0.79561437     0.05700
H822        H  0.44845718  0.74735919  0.85025369     0.05500
C823        C  0.81884432  0.08360385  0.53967948     0.02500
C824        C  0.81825502  0.12975363  0.52175784    -0.13600
C825        C  0.77062062  0.15014053  0.51199215     0.00000
C826        C  0.72384313  0.12465620  0.52196919    -0.12100
C827        C  0.72366756  0.08010993  0.54072941     0.02500
C828        C  0.77112317  0.05911361  0.54784592    -0.11500
H829        H  0.85420201  0.15068135  0.51639087     0.08100
H830        H  0.68715943  0.14164092  0.51678709     0.05700
H831        H  0.77034161  0.02518868  0.56229209     0.05500
C832        C  0.80964953  0.09329276  0.80377117     0.02500
C833        C  0.76231033  0.07803302  0.81925424    -0.13600
C834        C  0.71593602  0.10062215  0.81284901     0.00000
C835        C  0.71605247  0.14071124  0.79104106    -0.12100
C836        C  0.76291661  0.15770789  0.77439374     0.02500
C837        C  0.81018359  0.13393789  0.78163816    -0.11500
H838        H  0.76093771  0.04705144  0.83609766     0.08100
H839        H  0.67910718  0.15831364  0.78722718     0.05700
H840        H  0.84709205  0.14706882  0.77043001     0.05500
C841        C  0.88562841  0.29809100  0.63150638     0.02500
C842        C  0.84949856  0.29566073  0.65868280    -0.13600
C843        C  0.83330925  0.24864306  0.67186331     0.00000
C844        C  0.85153559  0.20438452  0.65621653    -0.12100
C845        C  0.88896814  0.20640682  0.62998929     0.02500
C846        C  0.90369859  0.25312725  0.61675350    -0.11500
H847        H  0.83725716  0.33028263  0.67098807     0.08100
H848        H  0.83966307  0.16759352  0.66585283     0.05700
H849        H  0.93453297  0.25444757  0.59778091     0.05500
C850        C  0.88687487  0.30046349  0.87967950     0.02500
C851        C  0.85054214  0.30093437  0.90659990    -0.13600
C852        C  0.83628515  0.25588371  0.92303499     0.00000
C853        C  0.85741683  0.20999391  0.91126401    -0.12100
C854        C  0.89412483  0.20917069  0.88458119     0.02500
C855        C  0.90741498  0.25406608  0.86839684    -0.11500
H856        H  0.83481483  0.33683999  0.91557384     0.08100
H857        H  0.84813729  0.17514672  0.92417466     0.05700
H858        H  0.93749319  0.25335477  0.84898615     0.05500
Zr859      Zr  0.02850757  0.92696032  0.65666184     2.17500
O860        O  0.98587997  0.85466688  0.68375274    -0.51900
O861        O  0.11155420  0.91482037  0.67889766    -0.75100
O862        O  0.06927267  0.85088479  0.63126817    -0.81900
O863        O  0.97046525  0.03384362  0.71296264    -0.83600
O864        O  0.11667895  0.88867868  0.59147338    -0.79300
O865        O  0.00444591  0.95354917  0.71050022    -0.90900
O866        O  0.16098442  0.97998061  0.65764310    -0.76900
O867        O  0.09338765  0.95386035  0.61750191    -0.86400
O868        O  0.04917621  0.01425330  0.66496144    -0.86100
O869        O  0.98716965  0.91440746  0.60874124    -0.72800
O870        O  0.94742703  0.97193818  0.65366199    -0.84900
Zr871      Zr  0.99136012  0.07561900  0.57401515     2.26400
Zr872      Zr  0.05391465  0.94291253  0.57034846     2.06300
Zr873      Zr  0.96975020  0.05926591  0.66083696     2.10000
Zr874      Zr  0.11297020  0.03983525  0.62541154     1.78800
O875        O  0.88576736  0.06288486  0.69190588    -0.93700
O876        O  0.19243466  0.02241938  0.59186507    -0.41600
O877        O  0.03381500  0.08831378  0.62142669    -0.78200
O878        O  0.07385856  0.03155707  0.57626854    -0.96900
O879        O  0.97439064  0.98805864  0.56703826    -0.90200
O880        O  0.92799405  0.04881486  0.61425376    -0.93000
C881        C  0.15506278  0.93878992  0.67441527     1.00700
C882        C  0.98689563  0.99376263  0.72520016     1.13700
C883        C  0.10424079  0.84934967  0.60778570     1.04400
O884        O  0.12885654  0.94717426  0.53143487    -0.95200
O885        O  0.03135720  0.95720520  0.51932337    -0.90900
O886        O  0.00018638  0.03858302  0.52147340    -0.84100
C887        C  0.01249796  0.99636157  0.50719125     1.11100
O888        O  0.86278887  0.88654526  0.62433889    -0.97100
Zr889      Zr  0.90809195  0.96326795  0.60478290     1.88900
O890        O  0.90900819  0.08852015  0.55093666    -0.73800
O891        O  0.03100363  0.85853224  0.55197165    -0.53100
O892        O  0.88709392  0.90808248  0.56179624    -0.97700
O893        O  0.82793944  0.98162218  0.63763058    -0.55000
O894        O  0.86117235  0.02078331  0.57009727    -0.74300
C895        C  0.86641149  0.06277596  0.55392500     0.98000
O896        O  0.03863991  0.14419515  0.54565835    -0.63100
O897        O  0.00857213  0.13067960  0.68680621    -0.57900
O898        O  0.94371016  0.15133405  0.59578543    -0.94600
O899        O  0.92724181  0.13469526  0.64782746    -0.93000
O900        O  0.13377752  0.09631455  0.66783483    -0.93400
O901        O  0.16156499  0.11642696  0.60922388    -0.92200
C902        C  0.92204635  0.16145675  0.62351445     1.16900
H903        H  0.06350903  0.01993093  0.68480312     0.32800
H904        H  0.09825778  0.04256306  0.55912255     0.43700
H905        H  0.89585588  0.06781835  0.61491776     0.37200
H906        H  0.97991123  0.87864089  0.60601352     0.33700
H907        H  0.22045299  0.02239931  0.60635898     0.25500
H908        H  0.99887096  0.86379511  0.54118906     0.31400
H909        H  0.90475866  0.92381863  0.54267072     0.37300
H910        H  0.15024683  0.07416918  0.68291212     0.31800
H911        H  0.98087400  0.14250514  0.70269684     0.30600
H912        H  0.88697023  0.09443844  0.70453311     0.32300
H913        H  0.81820047  0.01676801  0.63209395     0.31300
H914        H  0.13660524  0.13715457  0.59824795     0.35300
H915        H  0.06928835  0.12736888  0.53444191     0.28000
H916        H  0.01487972  0.83289923  0.68970343     0.32300
H917        H  0.82847162  0.88729956  0.61548211     0.35100
H918        H  0.03515574  0.11517279  0.69926231     0.27700
H919        H  0.01624990  0.15369558  0.52887014     0.40600
H920        H  0.13374230  0.91183769  0.52361803     0.30600
H921        H  0.18924418  0.98628727  0.58564783     0.38300
H922        H  0.83888480  0.98443471  0.65920478     0.30100
H923        H  0.05824011  0.85037759  0.53490023     0.30200
H924        H  0.97023440  0.83534011  0.66701902     0.30400
Zr925      Zr  0.98398068  0.07412983  0.82545424     2.17500
O926        O  0.02749853  0.14471036  0.79692673    -0.51900
O927        O  0.90100071  0.09014217  0.80633394    -0.75100
O928        O  0.98724223  0.04021490  0.77190381    -0.81900
O929        O  0.93358084  0.13753698  0.90242493    -0.83600
O930        O  0.00163061  0.95452461  0.77085022    -0.79300
O931        O  0.94157800  0.15063001  0.84964607    -0.90900
O932        O  0.85181712  0.02685470  0.83019135    -0.76900
O933        O  0.96023298  0.98782905  0.81937585    -0.86400
O934        O  0.92504823  0.05003418  0.86892000    -0.86100
O935        O  0.06403580  0.02604188  0.82199434    -0.72800
O936        O  0.03341285  0.08576856  0.86996924    -0.84900
Zr937      Zr  0.02633337  0.92458005  0.90490228     2.26400
Zr938      Zr  0.03769112  0.93857288  0.81806548     2.06300
Zr939      Zr  0.97393327  0.05913689  0.91272271     2.10000
Zr940      Zr  0.89984130  0.96525643  0.86101959     1.78800
O941        O  0.01605328  0.12860141  0.93870929    -0.93700
O942        O  0.86950094  0.91183083  0.81962583    -0.41600
O943        O  0.94645699  0.97271024  0.90726639    -0.78200
O944        O  0.97688454  0.91248552  0.86040870    -0.96900
O945        O  0.08493555  0.94896888  0.86209122    -0.90200
O946        O  0.05239400  0.01111065  0.91114694    -0.93000
C947        C  0.85741333  0.06799009  0.81335193     1.00700
C948        C  0.92526024  0.16309410  0.87806442     1.13700
C949        C  0.99109314  0.99635881  0.75813022     1.04400
O950        O  0.00792421  0.85517729  0.80191191    -0.95200
O951        O  0.10168575  0.87882916  0.83116327    -0.90900
O952        O  0.06910868  0.84974913  0.87863940    -0.84100
C953        C  0.09837149  0.84508209  0.85260939     1.11100
O954        O  0.15734104  0.10977783  0.84856923    -0.97100
Zr955      Zr  0.11071623  0.03373298  0.86803996     1.88900
O956        O  0.11104396  0.90879178  0.92203447    -0.73800
O957        O  0.10727604  0.93877449  0.77534456    -0.53100
O958        O  0.18183436  0.01112202  0.82912903    -0.97700
O959        O  0.14712487  0.08499645  0.90846564    -0.55000
O960        O  0.15969909  0.96933050  0.89514406    -0.74300
C961        C  0.15473164  0.92912632  0.91267635     0.98000
O962        O  0.98418124  0.85311796  0.93317825    -0.63100
O963        O  0.89450299  0.06289673  0.94826635    -0.57900
O964        O  0.01854765  0.95101671  0.95957222    -0.94600
O965        O  0.98540342  0.03148206  0.96348661    -0.93000
O966        O  0.82530767  0.98410137  0.89831280    -0.93400
O967        O  0.85196125  0.89047521  0.88115816    -0.92200
C968        C  0.00432942  0.99171254  0.97480541     1.16900
H969        H  0.89385193  0.07049850  0.87162664     0.32800
H970        H  0.96766613  0.87699874  0.85854281     0.43700
H971        H  0.07098388  0.01628177  0.92953400     0.37200
H972        H  0.08602524  0.03619653  0.80359109     0.33700
H973        H  0.83195673  0.92006443  0.81944701     0.25500
H974        H  0.09781498  0.91149089  0.76087232     0.31400
H975        H  0.17527665  0.97504963  0.82392536     0.37300
H976        H  0.79544916  0.98720038  0.88529367     0.31800
H977        H  0.89811216  0.09408761  0.96095087     0.30600
H978        H  0.99105597  0.13812207  0.95670584     0.32300
H979        H  0.15307214  0.06103139  0.92568605     0.31300
H980        H  0.87297096  0.87700608  0.89765895     0.35300
H981        H  0.95293012  0.86808868  0.94487323     0.28000
H982        H  0.00777960  0.14935536  0.77823309     0.32300
H983        H  0.19443234  0.10365934  0.85195821     0.35100
H984        H  0.86631117  0.07098461  0.93470620     0.27700
H985        H  0.97009038  0.83204731  0.91665250     0.40600
H986        H  0.97269950  0.86125133  0.79499581     0.30600
H987        H  0.88579679  0.92642828  0.79977119     0.38300
H988        H  0.11787727  0.10678703  0.91704896     0.30100
H989        H  0.10325270  0.97080124  0.76355529     0.30200
H990        H  0.06163593  0.13075825  0.78850041     0.30400
C991        C  0.20256115  0.91675825  0.68792438     0.02500
C992        C  0.25091647  0.94003072  0.67959995    -0.13600
C993        C  0.29793891  0.91759745  0.68653288     0.00000
C994        C  0.29661172  0.87275549  0.70492002    -0.12100
C995        C  0.24913940  0.84867840  0.71483976     0.02500
C996        C  0.20201771  0.87050818  0.70559613    -0.11500
H997        H  0.25238292  0.97414826  0.66530707     0.08100
H998        H  0.33280302  0.85455274  0.70990292     0.05700
H999        H  0.16552231  0.85057545  0.71117501     0.05500
C1000       C  0.20319412  0.90391348  0.92106109     0.02500
C1001       C  0.20390193  0.86276038  0.94263495    -0.13600
C1002       C  0.25183392  0.84117474  0.95050130     0.00000
C1003       C  0.29836930  0.86060856  0.93460060    -0.12100
C1004       C  0.29710401  0.90051407  0.91253807     0.02500
C1005       C  0.25004165  0.92118164  0.90590371    -0.11500
H1006       H  0.16733844  0.84798439  0.95338455     0.08100
H1007       H  0.33590844  0.84486825  0.93894274     0.05700
H1008       H  0.25053142  0.95250905  0.88932829     0.05500
Zr1009     Zr  0.47549939  0.91301111  0.64616143     2.17500
O1010       O  0.50477654  0.83032638  0.66361622    -0.51900
O1011       O  0.38747333  0.90767377  0.66998085    -0.75100
O1012       O  0.47990571  0.92261270  0.70390700    -0.81900
O1013       O  0.43551576  0.87555254  0.56276041    -0.83600
O1014       O  0.47882843  0.00821622  0.71017760    -0.79300
O1015       O  0.43793592  0.84622849  0.61278970    -0.90900
O1016       O  0.34756849  0.98086474  0.65657383    -0.76900
O1017       O  0.45339093  0.99803474  0.66136747    -0.86400
O1018       O  0.42854079  0.95150800  0.60685133    -0.86100
O1019       O  0.55801632  0.95519234  0.65137991    -0.72800
O1020       O  0.53574297  0.91211142  0.59968676    -0.84900
Zr1021     Zr  0.54581299  0.07913797  0.57913752     2.26400
Zr1022     Zr  0.53372478  0.04060422  0.66583451     2.06300
Zr1023     Zr  0.48739944  0.95097959  0.56080779     2.10000
Zr1024     Zr  0.40652013  0.03542006  0.62246767     1.78800
O1025       O  0.53005502  0.88318908  0.52926198    -0.93700
O1026       O  0.37602411  0.09408200  0.66422321    -0.41600
O1027       O  0.46362257  0.03664459  0.57459737    -0.78200
O1028       O  0.48705000  0.08061390  0.62632134    -0.96900
O1029       O  0.59205982  0.04259067  0.61944004    -0.90200
O1030       O  0.56815112  0.99370502  0.56475900    -0.93000
C1031       C  0.34773019  0.93710562  0.67049040     1.00700
C1032       C  0.42501773  0.84229491  0.58409024     1.13700
C1033       C  0.47626992  0.96304581  0.72130753     1.04400
O1034       O  0.50717387  0.11045493  0.70118502    -0.95200
O1035       O  0.58369790  0.11781682  0.66233984    -0.90900
O1036       O  0.58130949  0.14716991  0.61227092    -0.84100
C1037       C  0.59317965  0.15163328  0.64110801     1.11100
O1038       O  0.65535657  0.88195466  0.62351646    -0.97100
Zr1039     Zr  0.61600146  0.95886393  0.60392594     1.88900
O1040       O  0.63384522  0.08736234  0.55649050    -0.73800
O1041       O  0.60434188  0.01552301  0.69710664    -0.53100
O1042       O  0.68408377  0.97970901  0.63808511    -0.97700
O1043       O  0.65419945  0.90286506  0.56251734    -0.55000
O1044       O  0.67531097  0.01584431  0.57111982    -0.74300
C1045       C  0.67436075  0.05928580  0.55674874     0.98000
O1046       O  0.51334558  0.15966983  0.56034297    -0.63100
O1047       O  0.41523844  0.96423646  0.52831995    -0.57900
O1048       O  0.54696715  0.06998971  0.52072405    -0.94600
O1049       O  0.52001006  0.98867846  0.51268533    -0.93000
O1050       O  0.33489698  0.02021493  0.58979744    -0.93400
O1051       O  0.36645424  0.11206573  0.60333585    -0.92200
C1052       C  0.53729479  0.03180006  0.50285707     1.16900
H1053       H  0.39639141  0.93380678  0.60405614     0.32800
H1054       H  0.47934262  0.11552051  0.63220362     0.43700
H1055       H  0.59067353  0.99180458  0.54553179     0.37200
H1056       H  0.57543410  0.93860741  0.66772401     0.33700
H1057       H  0.33765936  0.08959051  0.66657148     0.25500
H1058       H  0.62100690  0.04787951  0.70267762     0.31400
H1059       H  0.69220339  0.01609874  0.63395887     0.37300
H1060       H  0.31845860  0.98803710  0.59766315     0.31800
H1061       H  0.38339376  0.95755326  0.54245109     0.30600
H1062       H  0.51159690  0.88223387  0.50988168     0.32300
H1063       H  0.65892268  0.92437378  0.54345577     0.31300
H1064       H  0.39563769  0.13058147  0.59173615     0.35300
H1065       H  0.48751645  0.14987924  0.54554604     0.28000
H1066       H  0.48332652  0.82362879  0.68356728     0.32300
H1067       H  0.69321411  0.88489489  0.61720568     0.35100
H1068       H  0.41446874  0.00140729  0.52445229     0.27700
H1069       H  0.49208116  0.17403240  0.57867734     0.40600
H1070       H  0.47522125  0.12436041  0.69303346     0.30600
H1071       H  0.38808041  0.07892102  0.68353511     0.38300
H1072       H  0.62580044  0.87902006  0.55832454     0.30100
H1073       H  0.58694514  0.00276536  0.71712357     0.30200
H1074       H  0.54034119  0.83667253  0.66994209     0.30400
Zr1075     Zr  0.42341936  0.96916728  0.83301535     2.17500
O1076       O  0.34242374  0.00190414  0.81518458    -0.51900
O1077       O  0.40930147  0.88184402  0.82034945    -0.75100
O1078       O  0.43686134  0.96673361  0.77465405    -0.81900
O1079       O  0.37577179  0.93963765  0.92005471    -0.83600
O1080       O  0.52474986  0.96229417  0.76432107    -0.79300
O1081       O  0.35133385  0.93684706  0.87002610    -0.90900
O1082       O  0.47472763  0.83769437  0.84061080    -0.76900
O1083       O  0.50880772  0.93828065  0.81810870    -0.86400
O1084       O  0.45570980  0.92661017  0.87650266    -0.86100
O1085       O  0.47381671  0.04437593  0.81881231    -0.72800
O1086       O  0.42265592  0.03261548  0.87384665    -0.84900
Zr1087     Zr  0.59097235  0.02915375  0.89110243     2.26400
Zr1088     Zr  0.55976348  0.01179909  0.80538026     2.06300
Zr1089     Zr  0.45444056  0.98837852  0.91724498     2.10000
Zr1090     Zr  0.53935231  0.89504960  0.86130091     1.78800
O1091       O  0.38171764  0.03383866  0.94486909    -0.93700
O1092       O  0.59011254  0.85263293  0.81809733    -0.41600
O1093       O  0.54001109  0.95457006  0.90431727    -0.78200
O1094       O  0.59321339  0.96815932  0.84873318    -0.96900
O1095       O  0.56133055  0.07143960  0.84691300    -0.90200
O1096       O  0.50588206  0.06196070  0.90454133    -0.93000
C1097       C  0.43192513  0.84037269  0.82692316     1.00700
C1098       C  0.34459021  0.92677341  0.89980892     1.13700
C1099       C  0.47843916  0.96087156  0.75565118     1.04400
O1100       O  0.63411722  0.97344542  0.77499913    -0.95200
O1101       O  0.63559963  0.06480881  0.80507795    -0.90900
O1102       O  0.66173433  0.06360421  0.85474423    -0.84100
C1103       C  0.66753445  0.07581474  0.82533653     1.11100
O1104       O  0.40010086  0.14793913  0.84558437    -0.97100
Zr1105     Zr  0.47812396  0.10509524  0.86081346     1.88900
O1106       O  0.60845686  0.11499523  0.90418066    -0.73800
O1107       O  0.54801218  0.07741099  0.76632370    -0.53100
O1108       O  0.50039633  0.16348318  0.81735453    -0.97700
O1109       O  0.42849626  0.15193320  0.90271660    -0.55000
O1110       O  0.54671396  0.15951355  0.88066488    -0.74300
C1111       C  0.58801415  0.15653930  0.89593776     0.98000
O1112       O  0.66939906  0.99185528  0.90958949    -0.63100
O1113       O  0.46380736  0.92520263  0.95806929    -0.57900
O1114       O  0.57742182  0.03392333  0.94957993    -0.94600
O1115       O  0.48958130  0.02713106  0.96126600    -0.93000
O1116       O  0.52061018  0.83315071  0.90326553    -0.93400
O1117       O  0.61793575  0.85434735  0.87727513    -0.92200
C1118       C  0.53580818  0.03448201  0.96898877     1.16900
H1119       H  0.43585011  0.89671630  0.88297100     0.32800
H1120       H  0.62873981  0.95752389  0.84305693     0.43700
H1121       H  0.50560337  0.08691271  0.92112979     0.37200
H1122       H  0.46019215  0.06065905  0.80096809     0.33700
H1123       H  0.58448327  0.81580578  0.82212973     0.25500
H1124       H  0.58228844  0.08037181  0.75401678     0.31400
H1125       H  0.53885092  0.16129563  0.81348256     0.37300
H1126       H  0.51791342  0.80003597  0.89242266     0.31800
H1127       H  0.43009863  0.92588846  0.97112984     0.30600
H1128       H  0.37645095  0.01698466  0.96563700     0.32300
H1129       H  0.45485689  0.17025718  0.91399204     0.31300
H1130       H  0.63935799  0.88275914  0.88435311     0.35300
H1131       H  0.65654395  0.96273132  0.92281355     0.28000
H1132       H  0.32695634  0.97246888  0.80484351     0.32300
H1133       H  0.40866496  0.18473470  0.84495040     0.35100
H1134       H  0.46377002  0.89206538  0.94702347     0.27700
H1135       H  0.68767175  0.97592083  0.89071323     0.40600
H1136       H  0.62999426  0.93638189  0.77870582     0.30600
H1137       H  0.57112292  0.85966147  0.79938310     0.38300
H1138       H  0.41457195  0.12544872  0.91766518     0.30100
H1139       H  0.52485858  0.06185435  0.75173448     0.30200
H1140       H  0.35348746  0.02548726  0.79778308     0.30400
C1141       C  0.61601026  0.19985745  0.65215705     0.02500
C1142       C  0.65233423  0.19974499  0.67530197    -0.13600
C1143       C  0.66786192  0.24558631  0.68952793     0.00000
C1144       C  0.64523723  0.29141001  0.68051970    -0.12100
C1145       C  0.60766688  0.29175107  0.65818311     0.02500
C1146       C  0.59457954  0.24611858  0.64367697    -0.11500
H1147       H  0.66855164  0.16373519  0.68208761     0.08100
H1148       H  0.65570805  0.32659082  0.69166155     0.05700
H1149       H  0.56567871  0.24618108  0.62666555     0.05500
C1150       C  0.61616698  0.29617455  0.90175909     0.02500
C1151       C  0.65140488  0.29705246  0.92563791    -0.13600
C1152       C  0.66999156  0.25127552  0.93871562     0.00000
C1153       C  0.65051812  0.20488235  0.92785292    -0.12100
C1154       C  0.61363075  0.20415966  0.90491226     0.02500
C1155       C  0.59895346  0.24966047  0.89126206    -0.11500
H1156       H  0.66438706  0.33356210  0.93380437     0.08100
H1157       H  0.66244401  0.16955787  0.93820255     0.06900
H1158       H  0.57091266  0.24923738  0.87372551     0.05500
Zr1159     Zr  0.02884921  0.57523280  0.65099437     2.17500
O1160       O  0.98539780  0.64508959  0.68011222    -0.51900
O1161       O  0.11232729  0.59086655  0.66971409    -0.75100
O1162       O  0.02571521  0.54127213  0.70456304    -0.81900
O1163       O  0.08180807  0.63718078  0.57455372    -0.83600
O1164       O  0.01184195  0.45550427  0.70527648    -0.79300
O1165       O  0.07064352  0.65225465  0.62704707    -0.90900
O1166       O  0.16090455  0.52628961  0.64687798    -0.76900
O1167       O  0.05183129  0.48880700  0.65698918    -0.86400
O1168       O  0.08778864  0.55059803  0.60771805    -0.86100
O1169       O  0.94821839  0.52808689  0.65447877    -0.72800
O1170       O  0.97929780  0.58677287  0.60647551    -0.84900
Zr1171     Zr  0.98630181  0.42564249  0.57181872     2.26400
Zr1172     Zr  0.97366941  0.44060233  0.65867715     2.06300
Zr1173     Zr  0.03905504  0.56008192  0.56387953     2.10000
Zr1174     Zr  0.11250067  0.46576966  0.61560414     1.78800
O1175       O  0.99764128  0.63084843  0.53881513    -0.93700
O1176       O  0.14284775  0.41277587  0.65716370    -0.41600
O1177       O  0.06620326  0.47356568  0.56929943    -0.78200
O1178       O  0.03477736  0.41387245  0.61664184    -0.96900
O1179       O  0.92705869  0.45011497  0.61438473    -0.90200
O1180       O  0.96037014  0.51222282  0.56540739    -0.93000
C1181       C  0.15562545  0.56783890  0.66332328     1.00700
C1182       C  0.08886552  0.66362419  0.59877600     1.13700
C1183       C  0.02237485  0.49722674  0.71813973     1.04400
O1184       O  0.00025648  0.35759554  0.67716303    -0.95200
O1185       O  0.91131248  0.37908972  0.64558384    -0.90900
O1186       O  0.94286849  0.35085328  0.59764772    -0.84100
C1187       C  0.91417294  0.34579295  0.62385614     1.11100
O1188       O  0.85383214  0.60942367  0.62943832    -0.97100
Zr1189     Zr  0.90163838  0.53494348  0.60840203     1.88900
O1190       O  0.90244242  0.41010889  0.55362607    -0.73800
O1191       O  0.90291655  0.44639211  0.70056599    -0.53100
O1192       O  0.83109175  0.51126113  0.64752283    -0.97700
O1193       O  0.86452441  0.58667124  0.56847864    -0.55000
O1194       O  0.85354326  0.47007457  0.58091420    -0.74300
C1195       C  0.85869294  0.43018595  0.56309157     0.98000
O1196       O  0.03090830  0.35374278  0.54544373    -0.63100
O1197       O  0.11836964  0.56471650  0.52827593    -0.57900
O1198       O  0.99590893  0.45095907  0.51697586    -0.94600
O1199       O  0.02697376  0.53225252  0.51312980    -0.93000
O1200       O  0.18664136  0.48623955  0.57827467    -0.93400
O1201       O  0.15958294  0.39087992  0.59483829    -0.92200
C1202       C  0.00945094  0.49182765  0.50172622     1.16900
H1203       H  0.11923186  0.57072756  0.60520043     0.32800
H1204       H  0.04357516  0.37833409  0.61876534     0.43700
H1205       H  0.94194421  0.51721067  0.54692258     0.37200
H1206       H  0.92627552  0.53869820  0.67280213     0.33700
H1207       H  0.18121803  0.41726544  0.65531992     0.25500
H1208       H  0.90631497  0.41526743  0.71331857     0.31400
H1209       H  0.83251465  0.47359734  0.64855797     0.37300
H1210       H  0.21042189  0.50660820  0.59032693     0.31800
H1211       H  0.11481572  0.59635308  0.51600280     0.30600
H1212       H  0.02323280  0.64133569  0.52134114     0.32300
H1213       H  0.85225290  0.56200705  0.55320894     0.31300
H1214       H  0.14288599  0.38226469  0.57549505     0.35300
H1215       H  0.06455510  0.36799819  0.53638589     0.28000
H1216       H  0.01064563  0.65593731  0.69502321     0.32300
H1217       H  0.81699075  0.60360798  0.62532617     0.35100
H1218       H  0.14669028  0.57218118  0.54187210     0.27700
H1219       H  0.04050411  0.33143293  0.56272172     0.40600
H1220       H  0.03857200  0.36017195  0.67773038     0.30600
H1221       H  0.13076776  0.43047709  0.67693947     0.38300
H1222       H  0.89486275  0.60364586  0.55705288     0.30100
H1223       H  0.91210230  0.47464481  0.71441711     0.30200
H1224       H  0.95674900  0.62869511  0.69345123     0.30400
Zr1225     Zr  0.98646053  0.42621722  0.81928152     2.17500
O1226       O  0.02789282  0.35463118  0.79071326    -0.51900
O1227       O  0.90288785  0.41485077  0.79737452    -0.75100
O1228       O  0.94583633  0.34987381  0.84448620    -0.81900
O1229       O  0.04409873  0.53391153  0.76334764    -0.83600
O1230       O  0.89743241  0.38873221  0.88332135    -0.79300
O1231       O  0.01001326  0.45366558  0.76552296    -0.90900
O1232       O  0.85357797  0.47997969  0.81882126    -0.76900
O1233       O  0.92138019  0.45332044  0.85831110    -0.86400
O1234       O  0.96639868  0.51370905  0.81132110    -0.86100
O1235       O  0.02721236  0.41312443  0.86746985    -0.72800
O1236       O  0.06805281  0.47042799  0.82282476    -0.84900
Zr1237     Zr  0.02312338  0.57428162  0.90241136     2.26400
Zr1238     Zr  0.96011127  0.44168917  0.90570525     2.06300
Zr1239     Zr  0.04617401  0.55792556  0.81566489     2.10000
Zr1240     Zr  0.90233713  0.53951340  0.85062525     1.78800
O1241       O  0.13141715  0.56072578  0.78604398    -0.93700
O1242       O  0.82370269  0.52327769  0.88515634    -0.41600
O1243       O  0.98172872  0.58742248  0.85472756    -0.78200
O1244       O  0.94074310  0.53041954  0.89981886    -0.96900
O1245       O  0.03969275  0.48656585  0.90964437    -0.90200
O1246       O  0.08693630  0.54719112  0.86254782    -0.93000
C1247       C  0.85940131  0.43885759  0.80200818     1.00700
C1248       C  0.02730795  0.49410951  0.75097024     1.13700
C1249       C  0.91049462  0.34879670  0.86778316     1.04400
O1250       O  0.88441020  0.44564215  0.94408489    -0.95200
O1251       O  0.98006400  0.45712383  0.95727436    -0.90900
O1252       O  0.01233611  0.53809027  0.95506123    -0.84100
C1253       C  0.99900534  0.49626295  0.96945169     1.11100
O1254       O  0.15037740  0.38330007  0.85398453    -0.97100
Zr1255     Zr  0.10640515  0.46156565  0.87215070     1.88900
O1256       O  0.10500229  0.58729949  0.92578927    -0.73800
O1257       O  0.98267788  0.35719672  0.92403792    -0.53100
O1258       O  0.12661844  0.40849270  0.91630716    -0.97700
O1259       O  0.18818165  0.47815358  0.84043610    -0.55000
O1260       O  0.15318664  0.51999783  0.90638151    -0.74300
C1261       C  0.14776095  0.56191620  0.92260772     0.98000
O1262       O  0.97652301  0.64288643  0.93110370    -0.63100
O1263       O  0.00938900  0.63031193  0.78949979    -0.57900
O1264       O  0.07024569  0.65031980  0.88057762    -0.94600
O1265       O  0.08892507  0.63301659  0.82878405    -0.93000
O1266       O  0.87972176  0.59317772  0.80728574    -0.93400
O1267       O  0.85771523  0.61847853  0.86638093    -0.92200
C1268       C  0.09284753  0.66024095  0.85304491     1.16900
H1269       H  0.95200078  0.51976433  0.79154208     0.32800
H1270       H  0.91624876  0.54143280  0.91690169     0.43700
H1271       H  0.11903902  0.56624698  0.86201500     0.37200
H1272       H  0.03425993  0.37730944  0.87014181     0.33700
H1273       H  0.79490489  0.52580293  0.87129930     0.25500
H1274       H  0.01125564  0.36303749  0.93772478     0.31400
H1275       H  0.10835887  0.42481114  0.93505537     0.37300
H1276       H  0.84143816  0.58956087  0.80700280     0.31800
H1277       H  0.03650853  0.64001938  0.77267800     0.30600
H1278       H  0.13046223  0.59135286  0.77257103     0.32300
H1279       H  0.21451220  0.48227867  0.85583304     0.31300
H1280       H  0.88031406  0.63450156  0.88121416     0.35300
H1281       H  0.94398795  0.62689294  0.94054297     0.28000
H1282       H  0.99853753  0.33423984  0.78385768     0.32300
H1283       H  0.18434510  0.38348256  0.86326559     0.35100
H1284       H  0.98079759  0.61584137  0.77819781     0.27700
H1285       H  0.99720385  0.64958179  0.94916146     0.40600
H1286       H  0.88296010  0.41187387  0.95444774     0.30600
H1287       H  0.82549139  0.48655875  0.89029309     0.38300
H1288       H  0.18426816  0.51269916  0.83167435     0.30100
H1289       H  0.95251462  0.34675406  0.93859085     0.30200
H1290       H  0.04247196  0.33358458  0.80707510     0.30400
C1291       C  0.20356530  0.59260797  0.67310759     0.02500
C1292       C  0.20326833  0.63333001  0.69520981    -0.13600
C1293       C  0.25066461  0.65687443  0.70252506     0.00000
C1294       C  0.29742399  0.63955010  0.68588043    -0.12100
C1295       C  0.29731694  0.59942371  0.66402100     0.02500
C1296       C  0.25084068  0.57693320  0.65771551    -0.11500
H1297       H  0.16640201  0.64672727  0.70632479     0.08100
H1298       H  0.33445139  0.65691505  0.68978806     0.05700
H1299       H  0.25206249  0.54585405  0.64093995     0.05500
C1300       C  0.19525404  0.58316506  0.93665005     0.02500
C1301       C  0.19549638  0.62907498  0.95479065    -0.13600
C1302       C  0.24306523  0.64983812  0.96437000     0.00000
C1303       C  0.29002156  0.62495804  0.95416714    -0.12100
C1304       C  0.29048850  0.58065431  0.93525001     0.02500
C1305       C  0.24317630  0.55937143  0.92809457    -0.11500
H1306       H  0.15935636  0.64955844  0.96043522     0.08100
H1307       H  0.32657897  0.64227050  0.95930233     0.05700
H1308       H  0.24414961  0.52565262  0.91346355     0.05500
Zr1309     Zr  0.59022003  0.46825247  0.64322093     2.17500
O1310       O  0.67143940  0.50057505  0.66082025    -0.51900
O1311       O  0.60463019  0.38114993  0.65626257    -0.75100
O1312       O  0.57726593  0.46712307  0.70160445    -0.81900
O1313       O  0.63754612  0.43807377  0.55613663    -0.83600
O1314       O  0.48940732  0.46453732  0.71276758    -0.79300
O1315       O  0.66224265  0.43606136  0.60610248    -0.90900
O1316       O  0.53919468  0.33696117  0.63609302    -0.76900
O1317       O  0.50470843  0.43795610  0.65866484    -0.86400
O1318       O  0.55781544  0.42517309  0.59991975    -0.86100
O1319       O  0.54030828  0.54369749  0.65751146    -0.72800
O1320       O  0.59141816  0.53146378  0.60221816    -0.84900
Zr1321     Zr  0.42308907  0.52864284  0.58563145     2.26400
Zr1322     Zr  0.45424073  0.51194662  0.67121805     2.06300
Zr1323     Zr  0.55907654  0.48690853  0.55911611     2.10000
Zr1324     Zr  0.47411372  0.39419199  0.61566431     1.78800
O1325       O  0.63225408  0.53185770  0.53159792    -0.93700
O1326       O  0.42488652  0.34919658  0.65846291    -0.41600
O1327       O  0.47343277  0.45351334  0.57249220    -0.78200
O1328       O  0.42063279  0.46775086  0.62814609    -0.96900
O1329       O  0.45291939  0.57147246  0.62962928    -0.90200
O1330       O  0.50849552  0.56092554  0.57198483    -0.93000
C1331       C  0.58196511  0.33964483  0.64978638     1.00700
C1332       C  0.66893731  0.42573822  0.57635522     1.13700
C1333       C  0.53593686  0.46245840  0.72094671     1.04400
O1334       O  0.38168033  0.47391374  0.70344674    -0.95200
O1335       O  0.37715333  0.56287923  0.67182073    -0.90900
O1336       O  0.35198595  0.56302922  0.62194490    -0.84100
C1337       C  0.34565795  0.57448416  0.65147257     1.11100
O1338       O  0.61338916  0.64323915  0.63531040    -0.97100
Zr1339     Zr  0.53659629  0.60433653  0.61552953     1.88900
O1340       O  0.40657929  0.61435229  0.57165714    -0.73800
O1341       O  0.46662174  0.57981890  0.70882142    -0.53100
O1342       O  0.51129311  0.66474797  0.65740911    -0.97700
O1343       O  0.58915022  0.65269193  0.57555323    -0.55000
O1344       O  0.47007255  0.65879458  0.59362996    -0.74300
C1345       C  0.42831413  0.65587098  0.57877865     0.98000
O1346       O  0.34389947  0.49225447  0.56762750    -0.63100
O1347       O  0.54901319  0.42480532  0.51771266    -0.57900
O1348       O  0.43640316  0.53312702  0.52708380    -0.94600
O1349       O  0.52419726  0.52642068  0.51529787    -0.93000
O1350       O  0.49100963  0.33126823  0.57411120    -0.93400
O1351       O  0.39478898  0.35493779  0.59976055    -0.92200
C1352       C  0.47799362  0.53404884  0.50764152     1.16900
H1353       H  0.57764976  0.39524766  0.59347606     0.32800
H1354       H  0.38506381  0.45730624  0.63389853     0.43700
H1355       H  0.50910705  0.58588086  0.55538451     0.37200
H1356       H  0.55422011  0.55991784  0.67528005     0.33700
H1357       H  0.43563978  0.31312172  0.65573014     0.25500
H1358       H  0.43238643  0.58381773  0.72105552     0.31400
H1359       H  0.47430396  0.65676897  0.66390971     0.37300
H1360       H  0.49636188  0.29879593  0.58518377     0.31800
H1361       H  0.58447766  0.42015421  0.50712270     0.30600
H1362       H  0.63830263  0.51419074  0.51112512     0.32300
H1363       H  0.56404976  0.67422246  0.56524102     0.31300
H1364       H  0.37617505  0.38295061  0.58996929     0.35300
H1365       H  0.35595319  0.46165960  0.55553414     0.28000
H1366       H  0.68258743  0.47411077  0.67534063     0.32300
H1367       H  0.60853935  0.68048739  0.63328921     0.35100
H1368       H  0.54144704  0.39230657  0.52893188     0.27700
H1369       H  0.32453473  0.47855769  0.58684755     0.40600
H1370       H  0.38638287  0.43673210  0.70053117     0.30600
H1371       H  0.44055752  0.36024768  0.67769930     0.38300
H1372       H  0.60115556  0.62722457  0.55943407     0.30100
H1373       H  0.48963257  0.56509116  0.72379629     0.30200
H1374       H  0.66080889  0.52983868  0.67453385     0.30400
Zr1375     Zr  0.53913056  0.41447606  0.83016309     2.17500
O1376       O  0.50900311  0.33244037  0.81233625    -0.51900
O1377       O  0.62704854  0.40873869  0.80656435    -0.75100
O1378       O  0.53579245  0.42447404  0.77249640    -0.81900
O1379       O  0.57747030  0.37516146  0.91321558    -0.83600
O1380       O  0.53541313  0.51015135  0.76617937    -0.79300
O1381       O  0.57781285  0.34745554  0.86269141    -0.90900
O1382       O  0.66709514  0.48167200  0.82022450    -0.76900
O1383       O  0.56144899  0.49951901  0.81525941    -0.86400
O1384       O  0.58555895  0.45231366  0.86991903    -0.86100
O1385       O  0.45692547  0.45688420  0.82465609    -0.72800
O1386       O  0.47795697  0.41302585  0.87617961    -0.84900
Zr1387     Zr  0.46893551  0.58009758  0.89766296     2.26400
Zr1388     Zr  0.48129454  0.54244609  0.81080632     2.06300
Zr1389     Zr  0.52583197  0.45108347  0.91560587     2.10000
Zr1390     Zr  0.60815099  0.53615280  0.85444299     1.78800
O1391       O  0.48386716  0.38227820  0.94662320    -0.93700
O1392       O  0.63827080  0.59480445  0.81257322    -0.41600
O1393       O  0.55053709  0.53673004  0.90211469    -0.78200
O1394       O  0.52793328  0.58192025  0.85057127    -0.96900
O1395       O  0.42273500  0.54441075  0.85705422    -0.90200
O1396       O  0.44559456  0.49465614  0.91134681    -0.93000
C1397       C  0.66683698  0.43802693  0.80616619     1.00700
C1398       C  0.58964640  0.34280389  0.89154850     1.13700
C1399       C  0.53870854  0.46492446  0.75514222     1.04400
O1400       O  0.50825646  0.61199819  0.77537280    -0.95200
O1401       O  0.43042740  0.61903636  0.81510523    -0.90900
O1402       O  0.43337099  0.64864141  0.86507342    -0.84100
C1403       C  0.42101644  0.65285209  0.83632913     1.11100
O1404       O  0.35480149  0.38653264  0.85129117    -0.97100
Zr1405     Zr  0.39822408  0.46052898  0.87169424     1.88900
O1406       O  0.38074410  0.58761412  0.92044241    -0.73800
O1407       O  0.41104067  0.51861702  0.77890272    -0.53100
O1408       O  0.33296312  0.48266876  0.83586862    -0.97700
O1409       O  0.36089811  0.40378562  0.91294305    -0.55000
O1410       O  0.33878410  0.51737184  0.90424342    -0.74300
C1411       C  0.33992613  0.56011930  0.91932197     0.98000
O1412       O  0.50280464  0.66017976  0.91634951    -0.63100
O1413       O  0.59625868  0.46539382  0.94921813    -0.57900
O1414       O  0.46917559  0.57037754  0.95593759    -0.94600
O1415       O  0.49167651  0.48763897  0.96385515    -0.93000
O1416       O  0.67896440  0.51985975  0.88753283    -0.93400
O1417       O  0.65016975  0.61171259  0.87364295    -0.92200
C1418       C  0.47666893  0.53148050  0.97373618     1.16900
H1419       H  0.61765560  0.43461566  0.87285451     0.32800
H1420       H  0.53581421  0.61686559  0.84485975     0.43700
H1421       H  0.42274342  0.49282190  0.93043292     0.37200
H1422       H  0.43972265  0.44061885  0.80810435     0.33700
H1423       H  0.67549866  0.58607963  0.80749812     0.25500
H1424       H  0.39400790  0.55114185  0.77403690     0.31400
H1425       H  0.32397139  0.51870911  0.84055432     0.37300
H1426       H  0.69674675  0.48894043  0.87869830     0.31800
H1427       H  0.62838926  0.45490982  0.93639736     0.30600
H1428       H  0.50596298  0.37717387  0.96421864     0.32300
H1429       H  0.35578967  0.42517455  0.93204709     0.31300
H1430       H  0.62384958  0.62647879  0.88936234     0.35300
H1431       H  0.53077864  0.64998816  0.92959382     0.28000
H1432       H  0.53198339  0.32482866  0.79310167     0.32300
H1433       H  0.31733662  0.39051447  0.85843114     0.35100
H1434       H  0.59930244  0.50287283  0.95093757     0.27700
H1435       H  0.52162613  0.67571746  0.89751230     0.40600
H1436       H  0.53607387  0.62988091  0.78564882     0.30600
H1437       H  0.62086934  0.58309519  0.79408838     0.38300
H1438       H  0.38970332  0.38041671  0.91710928     0.30100
H1439       H  0.42866874  0.50728321  0.75862620     0.30200
H1440       H  0.47451362  0.33977316  0.80471014     0.30400
loop_ 
_geom_bond_atom_site_label_1 
_geom_bond_atom_site_label_2 
_geom_bond_distance 
_geom_bond_site_symmetry_2 
_ccdc_geom_bond_type 
C1            C7   1.535       .  S
C1            C5   1.552       .  S
C1          C722   1.543       .  S
C1          C282   1.557       .  S
C2          C721   1.545   1_554  S
C2            H9   1.084       .  S
C2            C3   1.376       .  D
C3            C4   1.553       .  S
C3           C51   1.507       .  S
C4            C6   1.562       .  S
C4          C728   1.574   1_554  S
C4           H10   1.110       .  S
C5           H11   1.084       .  S
C5          C726   1.374       .  D
C6          C725   1.374   1_554  D
C6           C89   1.526       .  S
C7           H12   1.087       .  S
C7            C8   1.366       .  D
C8          C724   1.574       .  S
C8          C582   1.522       .  S
C13          C14   1.549       .  S
C13          C19   1.534       .  S
C13          C17   1.546       .  S
C13         C573   1.558       .  S
C14          H21   1.085       .  S
C14          C15   1.370       .  D
C15          C16   1.557       .  S
C15          C96   1.517       .  S
C16          C20   1.568       .  S
C16          C18   1.548       .  S
C16          H22   1.110       .  S
C17          H23   1.084       .  S
C17          C18   1.382       .  D
C18          C60   1.506       .  S
C19          H24   1.087       .  S
C19          C20   1.366       .  D
C20         C275   1.513       .  S
C25          C31   1.535       .  S
C25         C746   1.542   1_554  S
C25         C749   1.552   1_554  S
C25          C69   1.556       .  S
C26         C745   1.543       .  S
C26          H33   1.084       .  S
C26          C27   1.374       .  D
C27          C28   1.554       .  S
C27         C132   1.504       .  S
C28          C32   1.576       .  S
C28          C30   1.562       .  S
C28          H34   1.110       .  S
C29         C745   1.549       .  S
C29          H35   1.084       .  S
C29          C30   1.372       .  D
C30         C432   1.523       .  S
C31          H36   1.087       .  S
C31         C752   1.366   1_554  D
C32         C751   1.366       .  D
C32         C825   1.524       .  S
C37          C38   1.548       .  S
C37          C43   1.534       .  S
C37          C41   1.546       .  S
C37         C116   1.556       .  S
C38          H45   1.085       .  S
C38          C39   1.368       .  D
C39          C40   1.556       .  S
C39         C423   1.514       .  S
C40          C44   1.567       .  S
C40          C42   1.547       .  S
C40          H46   1.110       .  S
C41          H47   1.084       .  S
C41          C42   1.382       .  D
C42         C123   1.506       .  S
C43          H48   1.086       .  S
C43          C44   1.366       .  D
C44          C80   1.513       .  S
C49          C50   1.419       .  A
C49          C54   1.394       .  A
C49         C462   1.467       .  S
C50          C51   1.400       .  A
C50          H55   1.084       .  S
C51          C52   1.407       .  A
C52          C53   1.418       .  A
C52          H56   1.082       .  S
C53          C54   1.396       .  A
C53         C163   1.477       .  S
C54          H57   1.084       .  S
C58          C59   1.424       .  A
C58          C63   1.398       .  A
C58         C233   1.471       .  S
C59          C60   1.403       .  A
C59          H64   1.083       .  S
C60          C61   1.399       .  A
C61          C62   1.412       .  A
C61          H65   1.083       .  S
C62          C63   1.389       .  A
C62         C548   1.466       .  S
C63          H66   1.084       .  S
C67          C68   1.423       .  A
C67          C72   1.391       .  A
C67         C475   1.482       .  S
C68          C69   1.424       .  A
C68          H73   1.082       .  S
C69          C70   1.417       .  A
C70          C71   1.410       .  A
C70          H74   1.081       .  S
C71          C72   1.378       .  A
C71         C612   1.463       .  S
C72          H75   1.085       .  S
C76          C77   1.403       .  A
C76          C81   1.430       .  A
C76         C527   1.512       .  S
C77          C78   1.399       .  A
C77          H82   1.083       .  S
C78          C79   1.413       .  A
C78         C677   1.489       .  S
C79          C80   1.406       .  A
C79          H83   1.084       .  S
C80          C81   1.428       .  A
C81          H84   1.083       .  S
C85          C86   1.396       .  A
C85          C90   1.423       .  A
C85         C625   1.480       .  S
C86          C87   1.387       .  A
C86          H91   1.084       .  S
C87          C88   1.422       .  A
C87         C312   1.485       .  S
C88          C89   1.424       .  A
C88          H92   1.083       .  S
C89          C90   1.411       .  A
C90          H93   1.083       .  S
C94          C95   1.418       .  A
C94          C99   1.402       .  A
C94         C377   1.481       .  S
C95          C96   1.407       .  A
C95         H100   1.083       .  S
C96          C97   1.421       .  A
C97          C98   1.419       .  A
C97         H101   1.083       .  S
C98          C99   1.393       .  A
C98         C683   1.488       .  S
C99         H102   1.084       .  S
C103        C104   1.434       .  A
C103        C108   1.401       .  A
C103        C175   1.513       .  S
C104        C105   1.432       .  A
C104        H109   1.083       .  S
C105        C752   1.524   1_554  S
C105        C106   1.409       .  A
C106        C107   1.417       .  A
C106        H110   1.084       .  S
C107        C108   1.396       .  A
C107        C325   1.490       .  S
C108        H111   1.083       .  S
C112        C113   1.392       .  A
C112        C117   1.426       .  A
C112        C227   1.486       .  S
C113        C114   1.380       .  A
C113        H118   1.085       .  S
C114        C115   1.405       .  A
C114        C383   1.462       .  S
C115        C116   1.417       .  A
C115        H119   1.082       .  S
C116        C117   1.425       .  A
C117        H120   1.082       .  S
C121        C122   1.423       .  A
C121        C126   1.399       .  A
C121        C467   1.471       .  S
C122        C123   1.403       .  A
C122        H127   1.083       .  S
C123        C124   1.400       .  A
C124        C125   1.413       .  A
C124        H128   1.083       .  S
C125        C126   1.389       .  A
C125        C182   1.467       .  S
C126        H129   1.084       .  S
C130        C131   1.417       .  A
C130        C135   1.397       .  A
C130        C529   1.477       .  S
C131        C132   1.407       .  A
C131        H136   1.083       .  S
C132        C133   1.397       .  A
C133        C134   1.417       .  A
C133        H137   1.084       .  S
C134        C135   1.394       .  A
C134        C228   1.466       .  S
C135        H138   1.084       .  S
Zr139       O140   2.435   1_455  S
Zr139       O141   2.439       .  S
Zr139       O142   2.466       .  S
Zr139       O145   2.429       .  S
Zr139       O147   2.364       .  S
Zr139       O148   2.384   1_565  S
Zr139       O149   2.410   1_455  S
Zr139       O150   2.413   1_455  S
O140        H196   0.990   1_655  S
O140        H204   0.990       .  S
O141        C161   1.285       .  A
O142        C163   1.289       .  A
O143       Zr153   2.328       .  S
O143        C162   1.265   1_545  A
O144       Zr152   2.387       .  S
O144        C163   1.270       .  A
O145        C162   1.289   1_455  A
O146       Zr154   2.481   1_565  S
O146        C161   1.298       .  A
O147       Zr152   2.352       .  S
O147       Zr154   2.341   1_565  S
O148       Zr153   2.378   1_455  S
O148       Zr154   2.348       .  S
O148        H183   0.965       .  S
O149       Zr152   2.391   1_655  S
O149       Zr169   2.421       .  S
O149        H186   0.966       .  S
O150       Zr153   2.390   1_565  S
O150       Zr169   2.411       .  S
Zr151       O176   2.436   1_655  S
Zr151       O170   2.432       .  S
Zr151       O178   2.475       .  S
Zr151       O166   2.440       .  S
Zr151       O157   2.409   1_655  S
Zr151       O158   2.422   1_655  S
Zr151       O159   2.362   1_545  S
Zr151       O160   2.373       .  S
Zr152       O171   2.437       .  S
Zr152       O164   2.436       .  S
Zr152       O165   2.335       .  S
Zr152       O158   2.400   1_565  S
Zr152       O159   2.378   1_455  S
Zr153       O155   2.437       .  S
Zr153       O177   2.436   1_655  S
Zr153       O179   2.350       .  S
Zr153       O157   2.377   1_655  S
Zr153       O160   2.359       .  S
Zr154       O180   2.437       .  S
Zr154       O181   2.434       .  S
Zr154       O156   2.435       .  S
Zr154       O157   2.420       .  S
Zr154       O158   2.413       .  S
O155        H192   0.990       .  S
O156        H187   0.990       .  S
O156        H201   0.990   1_545  S
O158        H184   0.967       .  S
O159       Zr169   2.336       .  S
O160       Zr169   2.348   1_545  S
O160        H185   0.964       .  S
C161        C271   1.511       .  S
C162        C229   1.420       .  S
O164        H200   0.990       .  S
O165        C167   1.267       .  A
O166        C167   1.291   1_645  A
C167        C968   1.424   1_554  S
O168       Zr169   2.439       .  S
O168        H197   0.990       .  S
Zr169       O172   2.436       .  S
Zr169       O173   2.439       .  S
Zr169       O174   2.497   1_565  S
O170        C175   1.283       .  A
O171        H188   0.990   1_455  S
O171        H203   0.990       .  S
O172        H189   0.990       .  S
O173        H193   0.990       .  S
O173        H202   0.990   1_565  S
O174        C175   1.301       .  A
O176        H195   0.990       .  S
O176        H199   0.990       .  S
O177        H191   0.990   1_455  S
O177        H198   0.990       .  S
O178        C182   1.292       .  A
O179        C182   1.271       .  A
O180        H190   0.990       .  S
O181        H194   0.990       .  S
Zr205       O206   2.435   1_655  S
Zr205       O207   2.388       .  S
Zr205       O208   2.441       .  S
Zr205       O211   2.472       .  S
Zr205       O213   2.368   1_545  S
Zr205       O214   2.377       .  S
Zr205       O215   2.408   1_655  S
Zr205       O216   2.393   1_655  S
O206        H262   0.990       .  S
O206        H270   0.990       .  S
O207        C227   1.275       .  A
O208        C229   1.291   1_545  A
O209       Zr219   2.361       .  S
O209        C228   1.271       .  A
O210       Zr218   2.332       .  S
O210        C229   1.266   1_455  A
O211        C228   1.293       .  A
O212       Zr220   2.481   1_545  S
O212        C227   1.299       .  A
O213       Zr218   2.371   1_655  S
O213       Zr220   2.336       .  S
O214       Zr219   2.353       .  S
O214       Zr220   2.352   1_545  S
O214        H249   0.964       .  S
O215       Zr218   2.401   1_545  S
O215       Zr235   2.399       .  S
O215        H252   0.965       .  S
O216       Zr219   2.382   1_455  S
O216       Zr235   2.408       .  S
Zr217       O242   2.435   1_455  S
Zr217       O236   2.395       .  S
Zr217       O244   2.433       .  S
Zr217       O232   2.469       .  S
Zr217       O223   2.404   1_455  S
Zr217       O224   2.402   1_455  S
Zr217       O225   2.358       .  S
Zr217       O226   2.389   1_565  S
Zr218       O237   2.444       .  S
Zr218       O230   2.438       .  S
Zr218       O231   2.373       .  S
Zr218       O224   2.388   1_455  S
Zr218       O225   2.342       .  S
Zr219       O221   2.435   1_655  S
Zr219       O243   2.440       .  S
Zr219       O245   2.325       .  S
Zr219       O223   2.391   1_545  S
Zr219       O226   2.379   1_655  S
Zr220       O246   2.436       .  S
Zr220       O247   2.435       .  S
Zr220       O222   2.438       .  S
Zr220       O223   2.406       .  S
Zr220       O224   2.418       .  S
O221        H258   0.991   1_455  S
O222        H253   0.990       .  S
O222        H267   0.990       .  S
O224        H250   0.966       .  S
O225       Zr235   2.340   1_565  S
O226       Zr235   2.349       .  S
O226        H251   0.965       .  S
O230        H266   0.990   1_455  S
O231        C233   1.272       .  A
O232        C233   1.293       .  A
O234       Zr235   2.437       .  S
O234        H263   0.991       .  S
Zr235       O238   2.438       .  S
Zr235       O239   2.437       .  S
Zr235       O240   2.459   1_545  S
O236        C241   1.277       .  A
O237        H254   0.990       .  S
O237        H269   0.990       .  S
O238        H255   0.990   1_545  S
O239        H259   0.990       .  S
O239        H268   0.990       .  S
O240        C241   1.294       .  A
C241        C280   1.483       .  S
O242        H261   0.990       .  S
O242        H265   0.990       .  S
O243        H257   0.991       .  S
O243        H264   0.990       .  S
O244        C248   1.288       .  A
O245        C248   1.265   1_645  A
O246        H256   0.990   1_565  S
O247        H260   0.990       .  S
C248        C887   1.422       .  S
C271        C272   1.404       .  A
C271        C276   1.429       .  A
C272        C273   1.399       .  A
C272        H277   1.083       .  S
C273        C274   1.414       .  A
C273        C311   1.489       .  S
C274        C275   1.407       .  A
C274        H278   1.084       .  S
C275        C276   1.427       .  A
C276        H279   1.083       .  S
C280        C281   1.421       .  A
C280        C285   1.394       .  A
C281        C282   1.424       .  A
C281        H286   1.082       .  S
C282        C283   1.419       .  A
C283        C284   1.412       .  A
C283        H287   1.081       .  S
C284        C285   1.378       .  A
C284        C378   1.467       .  S
C285        H288   1.085       .  S
Zr289       O290   2.435       .  S
Zr289       O291   2.401       .  S
Zr289       O292   2.492       .  S
Zr289       O295   2.506       .  S
Zr289       O297   2.378       .  S
Zr289       O298   2.377       .  S
Zr289       O299   2.422       .  S
Zr289       O300   2.409       .  S
O290        H346   0.990       .  S
O290        H354   0.990       .  S
O291        C311   1.279       .  A
O292        C313   1.294       .  A
O293       Zr303   2.388       .  S
O293        C312   1.275       .  A
O294       Zr302   2.418       .  S
O294        C313   1.277   1_545  A
O295        C312   1.302       .  A
O296       Zr304   2.467   1_565  S
O296        C311   1.293       .  A
O297       Zr302   2.368   1_565  S
O297       Zr304   2.350   1_565  S
O298       Zr303   2.376       .  S
O298       Zr304   2.358   1_565  S
O298        H333   0.965       .  S
O299       Zr302   2.395   1_565  S
O299       Zr319   2.413       .  S
O299        H336   0.966       .  S
O300       Zr303   2.391       .  S
O300       Zr319   2.423       .  S
Zr301       O326   2.435       .  S
Zr301       O320   2.393       .  S
Zr301       O328   2.503       .  S
Zr301       O316   2.493       .  S
Zr301       O307   2.409       .  S
Zr301       O308   2.414       .  S
Zr301       O309   2.378       .  S
Zr301       O310   2.380   1_545  S
Zr302       O321   2.436       .  S
Zr302       O314   2.433       .  S
Zr302       O315   2.396       .  S
Zr302       O308   2.397       .  S
Zr302       O309   2.381       .  S
Zr303       O305   2.435       .  S
Zr303       O327   2.437       .  S
Zr303       O329   2.372       .  S
Zr303       O307   2.391   1_565  S
Zr303       O310   2.381       .  S
Zr304       O330   2.437       .  S
Zr304       O331   2.434       .  S
Zr304       O306   2.436       .  S
Zr304       O307   2.412       .  S
Zr304       O308   2.405       .  S
O305        H342   0.990       .  S
O306        H337   0.990       .  S
O306        H351   0.990       .  S
O308        H334   0.966       .  S
O309       Zr319   2.358   1_545  S
O310       Zr319   2.347       .  S
O310        H335   0.964       .  S
C313        C379   1.475       .  S
O314        H350   0.990       .  S
O315        C317   1.277       .  A
O316        C317   1.299       .  A
C317        C421   1.485       .  S
O318       Zr319   2.438       .  S
O318        H347   0.991       .  S
Zr319       O322   2.438       .  S
Zr319       O323   2.440       .  S
Zr319       O324   2.481   1_565  S
O320        C325   1.277       .  A
O321        H338   0.990       .  S
O321        H353   0.988       .  S
O322        H339   0.990   1_565  S
O323        H343   0.990       .  S
O323        H352   0.990       .  S
O324        C325   1.296       .  A
O326        H345   0.990       .  S
O326        H349   0.990       .  S
O327        H341   0.990       .  S
O327        H348   0.990   1_565  S
O328        C332   1.297       .  A
O329        C332   1.274   1_565  A
O330        H340   0.990   1_545  S
O331        H344   0.990       .  S
C332       C1118   1.461   1_554  S
Zr355       O356   2.435   1_565  S
Zr355       O357   2.394       .  S
Zr355       O358   2.488       .  S
Zr355       O361   2.483       .  S
Zr355       O363   2.376       .  S
Zr355       O364   2.379       .  S
Zr355       O365   2.412   1_565  S
Zr355       O366   2.411   1_565  S
O356        H412   0.990   1_545  S
O356        H420   0.990       .  S
O357        C377   1.278       .  A
O358        C379   1.294       .  A
O359       Zr369   2.388       .  S
O359        C378   1.275       .  A
O360       Zr368   2.418   1_565  S
O360        C379   1.278       .  A
O361        C378   1.297       .  A
O362       Zr370   2.460       .  S
O362        C377   1.292       .  A
O363       Zr368   2.367   1_565  S
O363       Zr370   2.360       .  S
O364       Zr369   2.376       .  S
O364       Zr370   2.344       .  S
O364        H399   0.964       .  S
O365       Zr368   2.391       .  S
O365       Zr385   2.411       .  S
O365        H402   0.966       .  S
O366       Zr369   2.393   1_545  S
O366       Zr385   2.416       .  S
Zr367       O392   2.434   1_545  S
Zr367       O386   2.375       .  S
Zr367       O394   2.500       .  S
Zr367       O382   2.463       .  S
Zr367       O373   2.397   1_545  S
Zr367       O374   2.416   1_545  S
Zr367       O375   2.374       .  S
Zr367       O376   2.375       .  S
Zr368       O387   2.434       .  S
Zr368       O380   2.434   1_545  S
Zr368       O381   2.389       .  S
Zr368       O374   2.400   1_545  S
Zr368       O375   2.373       .  S
Zr369       O371   2.435   1_565  S
Zr369       O393   2.437       .  S
Zr369       O395   2.382   1_565  S
Zr369       O373   2.390       .  S
Zr369       O376   2.377   1_565  S
Zr370       O396   2.437       .  S
Zr370       O397   2.436       .  S
Zr370       O372   2.434       .  S
Zr370       O373   2.412       .  S
Zr370       O374   2.402       .  S
O371        H408   0.990       .  S
O372        H403   0.990       .  S
O372        H417   0.990       .  S
O374        H400   0.966       .  S
O375       Zr385   2.345       .  S
O376       Zr385   2.347       .  S
O376        H401   0.964       .  S
O380        H416   0.990       .  S
O381        C383   1.276       .  A
O382        C383   1.293       .  A
O384       Zr385   2.438       .  S
O384        H413   0.990       .  S
Zr385       O388   2.437       .  S
Zr385       O389   2.440       .  S
Zr385       O390   2.477       .  S
O386        C391   1.274       .  A
O387        H404   0.990       .  S
O387        H419   0.987       .  S
O388        H405   0.990       .  S
O389        H409   0.990       .  S
O389        H418   0.990       .  S
O390        C391   1.296       .  A
C391        C434   1.479       .  S
O392        H411   0.990       .  S
O392        H415   0.990       .  S
O393        H407   0.990       .  S
O393        H414   0.989       .  S
O394        C398   1.297       .  A
O395        C398   1.276       .  A
O396        H406   0.990       .  S
O397        H410   0.990       .  S
C398       C1052   1.462       .  S
C421        C422   1.417       .  A
C421        C426   1.393       .  A
C422        C423   1.420       .  A
C422        H427   1.083       .  S
C423        C424   1.406       .  A
C424        C425   1.417       .  A
C424        H428   1.083       .  S
C425        C426   1.402       .  A
C425        C611   1.480       .  S
C426        H429   1.084       .  S
C430        C431   1.421       .  A
C430        C435   1.386       .  A
C430        C678   1.483       .  S
C431        C432   1.424       .  A
C431        H436   1.083       .  S
C432        C433   1.410       .  A
C433        C434   1.422       .  A
C433        H437   1.083       .  S
C434        C435   1.395       .  A
C435        H438   1.084       .  S
Zr439       O440   2.435   1_455  S
Zr439       O441   2.386       .  S
Zr439       O442   2.448       .  S
Zr439       O445   2.473       .  S
Zr439       O447   2.367       .  S
Zr439       O448   2.375       .  S
Zr439       O449   2.408   1_455  S
Zr439       O450   2.398   1_455  S
O440        H496   0.990   1_655  S
O440        H504   0.990       .  S
O441        C461   1.275       .  A
O442        C463   1.292       .  A
O443       Zr453   2.367       .  S
O443        C462   1.272       .  A
O444       Zr452   2.326   1_455  S
O444        C463   1.265       .  A
O445        C462   1.293       .  A
O446       Zr454   2.483       .  S
O446        C461   1.299       .  A
O447       Zr452   2.372   1_455  S
O447       Zr454   2.336       .  S
O448       Zr453   2.351       .  S
O448       Zr454   2.347       .  S
O448        H483   0.964       .  S
O449       Zr452   2.400       .  S
O449       Zr469   2.401       .  S
O449        H486   0.965       .  S
O450       Zr453   2.382   1_655  S
O450       Zr469   2.412       .  S
Zr451       O476   2.433   1_655  S
Zr451       O470   2.387       .  S
Zr451       O478   2.428       .  S
Zr451       O466   2.468       .  S
Zr451       O457   2.405   1_655  S
Zr451       O458   2.397   1_655  S
Zr451       O459   2.356       .  S
Zr451       O460   2.389       .  S
Zr452       O471   2.442       .  S
Zr452       O464   2.438   1_655  S
Zr452       O465   2.374       .  S
Zr452       O458   2.387   1_655  S
Zr452       O459   2.341       .  S
Zr453       O455   2.434   1_455  S
Zr453       O477   2.438       .  S
Zr453       O479   2.335       .  S
Zr453       O457   2.394       .  S
Zr453       O460   2.377   1_455  S
Zr454       O480   2.436       .  S
Zr454       O481   2.436       .  S
Zr454       O456   2.436       .  S
Zr454       O457   2.406       .  S
Zr454       O458   2.418       .  S
O455        H492   0.990   1_655  S
O456        H487   0.990       .  S
O456        H501   0.990       .  S
O458        H484   0.966       .  S
O459       Zr469   2.341       .  S
O460       Zr469   2.348       .  S
O460        H485   0.964       .  S
C461        C571   1.485       .  S
C463        C528   1.420       .  S
O464        H500   0.990       .  S
O465        C467   1.272       .  A
O466        C467   1.292       .  A
O468       Zr469   2.438       .  S
O468        H497   0.990       .  S
Zr469       O472   2.436       .  S
Zr469       O473   2.441       .  S
Zr469       O474   2.467       .  S
O470        C475   1.275       .  A
O471        H488   0.990       .  S
O471        H503   0.990       .  S
O472        H489   0.990       .  S
O473        H493   0.990       .  S
O473        H502   0.990       .  S
O474        C475   1.296       .  A
O476        H495   0.990       .  S
O476        H499   0.990       .  S
O477        H491   0.990       .  S
O477        H498   0.990       .  S
O478        C482   1.287   1_655  A
O479        C482   1.267       .  A
O480        H490   0.990       .  S
O481        H494   0.990       .  S
C482       C1253   1.425   1_454  S
Zr505       O506   2.434   1_655  S
Zr505       O507   2.436       .  S
Zr505       O508   2.461       .  S
Zr505       O511   2.428   1_655  S
Zr505       O513   2.368       .  S
Zr505       O514   2.386       .  S
Zr505       O515   2.414   1_655  S
Zr505       O516   2.413   1_655  S
O506        H562   0.990   1_455  S
O506        H570   0.990       .  S
O507        C527   1.284       .  A
O508        C529   1.288       .  A
O509       Zr519   2.326       .  S
O509        C528   1.263       .  A
O510       Zr518   2.390       .  S
O510        C529   1.270       .  A
O511        C528   1.289       .  A
O512       Zr520   2.487       .  S
O512        C527   1.299       .  A
O513       Zr518   2.354       .  S
O513       Zr520   2.342       .  S
O514       Zr519   2.381   1_655  S
O514       Zr520   2.350       .  S
O514        H549   0.965       .  S
O515       Zr518   2.393   1_455  S
O515       Zr535   2.424       .  S
O515        H552   0.966       .  S
O516       Zr519   2.390       .  S
O516       Zr535   2.414       .  S
Zr517       O542   2.434   1_455  S
Zr517       O536   2.435       .  S
Zr517       O544   2.470       .  S
Zr517       O532   2.441       .  S
Zr517       O523   2.407   1_455  S
Zr517       O524   2.424   1_455  S
Zr517       O525   2.360       .  S
Zr517       O526   2.371       .  S
Zr518       O537   2.439       .  S
Zr518       O530   2.437       .  S
Zr518       O531   2.340       .  S
Zr518       O524   2.399       .  S
Zr518       O525   2.380   1_655  S
Zr519       O521   2.437       .  S
Zr519       O543   2.438       .  S
Zr519       O545   2.352       .  S
Zr519       O523   2.377   1_455  S
Zr519       O526   2.356       .  S
Zr520       O546   2.435       .  S
Zr520       O547   2.435       .  S
Zr520       O522   2.436       .  S
Zr520       O523   2.419       .  S
Zr520       O524   2.414       .  S
O521        H558   0.990       .  S
O522        H553   0.990       .  S
O522        H567   0.990       .  S
O524        H550   0.966       .  S
O525       Zr535   2.333       .  S
O526       Zr535   2.348       .  S
O526        H551   0.964       .  S
O530        H566   0.990       .  S
O531        C533   1.268   1_655  A
O532        C533   1.291       .  A
C533       C1202   1.425       .  S
O534       Zr535   2.438       .  S
O534        H563   0.990       .  S
Zr535       O538   2.438       .  S
Zr535       O539   2.440       .  S
Zr535       O540   2.500       .  S
O536        C541   1.284       .  A
O537        H554   0.990   1_655  S
O537        H569   0.990       .  S
O538        H555   0.990       .  S
O539        H559   0.991       .  S
O539        H568   0.990       .  S
O540        C541   1.302       .  A
C541        C580   1.515       .  S
O542        H561   0.990       .  S
O542        H565   0.990       .  S
O543        H557   0.990       .  S
O543        H564   0.990   1_455  S
O544        C548   1.291       .  A
O545        C548   1.271       .  A
O546        H556   0.990       .  S
O547        H560   0.990       .  S
C571        C572   1.426       .  A
C571        C576   1.392       .  A
C572        C573   1.425       .  A
C572        H577   1.082       .  S
C573        C574   1.418       .  A
C574        C575   1.407       .  A
C574        H578   1.082       .  S
C575        C576   1.380       .  A
C575        C617   1.466       .  S
C576        H579   1.085       .  S
C580        C581   1.433       .  A
C580        C585   1.402       .  A
C581        C582   1.432       .  A
C581        H586   1.083       .  S
C582        C583   1.409       .  A
C583        C584   1.416       .  A
C583        H587   1.084       .  S
C584        C585   1.397       .  A
C584        C691   1.489       .  S
C585        H588   1.083       .  S
Zr589       O590   2.436       .  S
Zr589       O591   2.391       .  S
Zr589       O592   2.485       .  S
Zr589       O595   2.476       .  S
Zr589       O597   2.375       .  S
Zr589       O598   2.380       .  S
Zr589       O599   2.408       .  S
Zr589       O600   2.410       .  S
O590        H646   0.990       .  S
O590        H654   0.990       .  S
O591        C611   1.277       .  A
O592        C613   1.294       .  A
O593       Zr603   2.386       .  S
O593        C612   1.275       .  A
O594       Zr602   2.416       .  S
O594        C613   1.278       .  A
O595        C612   1.296       .  A
O596       Zr604   2.465       .  S
O596        C611   1.292       .  A
O597       Zr602   2.370       .  S
O597       Zr604   2.356       .  S
O598       Zr603   2.379       .  S
O598       Zr604   2.345       .  S
O598        H633   0.964       .  S
O599       Zr602   2.393       .  S
O599       Zr619   2.408       .  S
O599        H636   0.966       .  S
O600       Zr603   2.394       .  S
O600       Zr619   2.416       .  S
Zr601       O626   2.436       .  S
Zr601       O620   2.376       .  S
Zr601       O628   2.501       .  S
Zr601       O616   2.466       .  S
Zr601       O607   2.398       .  S
Zr601       O608   2.416       .  S
Zr601       O609   2.375       .  S
Zr601       O610   2.375       .  S
Zr602       O621   2.436       .  S
Zr602       O614   2.434       .  S
Zr602       O615   2.394       .  S
Zr602       O608   2.402       .  S
Zr602       O609   2.372       .  S
Zr603       O605   2.436       .  S
Zr603       O627   2.436       .  S
Zr603       O629   2.386       .  S
Zr603       O607   2.391       .  S
Zr603       O610   2.379       .  S
Zr604       O630   2.436       .  S
Zr604       O631   2.434       .  S
Zr604       O606   2.436       .  S
Zr604       O607   2.413       .  S
Zr604       O608   2.403       .  S
O605        H642   0.990       .  S
O606        H637   0.990       .  S
O606        H651   0.990       .  S
O608        H634   0.966       .  S
O609       Zr619   2.347       .  S
O610       Zr619   2.346       .  S
O610        H635   0.964       .  S
C613        C679   1.472       .  S
O614        H650   0.990       .  S
O615        C617   1.277       .  A
O616        C617   1.294       .  A
O618       Zr619   2.438       .  S
O618        H647   0.991       .  S
Zr619       O622   2.438       .  S
Zr619       O623   2.438       .  S
Zr619       O624   2.480       .  S
O620        C625   1.274       .  A
O621        H638   0.989       .  S
O621        H653   0.987       .  S
O622        H639   0.990       .  S
O623        H643   0.990       .  S
O623        H652   0.990       .  S
O624        C625   1.297       .  A
O626        H645   0.990       .  S
O626        H649   0.990       .  S
O627        H641   0.990       .  S
O627        H648   0.990       .  S
O628        C632   1.297       .  A
O629        C632   1.276       .  A
O630        H640   0.990       .  S
O631        H644   0.990       .  S
C632       C1418   1.462   1_554  S
Zr655       O656   2.435       .  S
Zr655       O657   2.399       .  S
Zr655       O658   2.488       .  S
Zr655       O661   2.506       .  S
Zr655       O663   2.381       .  S
Zr655       O664   2.378       .  S
Zr655       O665   2.421       .  S
Zr655       O666   2.407       .  S
O656        H712   0.990       .  S
O656        H720   0.990       .  S
O657        C677   1.279       .  A
O658        C679   1.294       .  A
O659       Zr669   2.385       .  S
O659        C678   1.274       .  A
O660       Zr668   2.415       .  S
O660        C679   1.277       .  A
O661        C678   1.302       .  A
O662       Zr670   2.469       .  S
O662        C677   1.294       .  A
O663       Zr668   2.371       .  S
O663       Zr670   2.351       .  S
O664       Zr669   2.376       .  S
O664       Zr670   2.356       .  S
O664        H699   0.965       .  S
O665       Zr668   2.395       .  S
O665       Zr685   2.409       .  S
O665        H702   0.966       .  S
O666       Zr669   2.391       .  S
O666       Zr685   2.421       .  S
Zr667       O692   2.437       .  S
Zr667       O686   2.397       .  S
Zr667       O694   2.506       .  S
Zr667       O682   2.498       .  S
Zr667       O673   2.410       .  S
Zr667       O674   2.418       .  S
Zr667       O675   2.380       .  S
Zr667       O676   2.382       .  S
Zr668       O687   2.437       .  S
Zr668       O680   2.434       .  S
Zr668       O681   2.397       .  S
Zr668       O674   2.397       .  S
Zr668       O675   2.380       .  S
Zr669       O671   2.436       .  S
Zr669       O693   2.437       .  S
Zr669       O695   2.369       .  S
Zr669       O673   2.390       .  S
Zr669       O676   2.379       .  S
Zr670       O696   2.437       .  S
Zr670       O697   2.434       .  S
Zr670       O672   2.437       .  S
Zr670       O673   2.411       .  S
Zr670       O674   2.407       .  S
O671        H708   0.990       .  S
O672        H703   0.990       .  S
O672        H717   0.990       .  S
O674        H700   0.966       .  S
O675       Zr685   2.361       .  S
O676       Zr685   2.349       .  S
O676        H701   0.964       .  S
O680        H716   0.990       .  S
O681        C683   1.277       .  A
O682        C683   1.300       .  A
O684       Zr685   2.439       .  S
O684        H713   0.991       .  S
Zr685       O688   2.438       .  S
Zr685       O689   2.439       .  S
Zr685       O690   2.474       .  S
O686        C691   1.278       .  A
O687        H704   0.990       .  S
O687        H719   0.989       .  S
O688        H705   0.990       .  S
O689        H709   0.990       .  S
O689        H718   0.990       .  S
O690        C691   1.295       .  A
O692        H711   0.990       .  S
O692        H715   0.990       .  S
O693        H707   0.990       .  S
O693        H714   0.990       .  S
O694        C698   1.298       .  A
O695        C698   1.274       .  A
O696        H706   0.990       .  S
O697        H710   0.990       .  S
C698       C1352   1.461       .  S
C721        C727   1.534       .  S
C721        C725   1.552       .  S
C721       C1002   1.557       .  S
C722        H729   1.085       .  S
C722        C723   1.375       .  D
C723        C724   1.552       .  S
C723        C771   1.503       .  S
C724        C726   1.561       .  S
C724        H730   1.110       .  S
C725        H731   1.084       .  S
C726        C809   1.525       .  S
C727        H732   1.087       .  S
C727        C728   1.365       .  D
C728       C1302   1.520       .  S
C733        C734   1.550       .  S
C733        C739   1.534       .  S
C733        C737   1.547       .  S
C733       C1293   1.558       .  S
C734        H741   1.085       .  S
C734        C735   1.370       .  D
C735        C736   1.556       .  S
C735        C816   1.516       .  S
C736        C740   1.568       .  S
C736        C738   1.547       .  S
C736        H742   1.110       .  S
C737        H743   1.084       .  S
C737        C738   1.383       .  D
C738        C780   1.508       .  S
C739        H744   1.087       .  S
C739        C740   1.365       .  D
C740        C995   1.513       .  S
C745        C751   1.535       .  S
C745        C789   1.553       .  S
C746        H753   1.084       .  S
C746        C747   1.375       .  D
C747        C748   1.554       .  S
C747        C852   1.503       .  S
C748        C752   1.576       .  S
C748        C750   1.563       .  S
C748        H754   1.110       .  S
C749        H755   1.084       .  S
C749        C750   1.373       .  D
C750       C1152   1.527       .  S
C751        H756   1.087       .  S
C757        C758   1.547       .  S
C757        C763   1.533       .  S
C757        C761   1.547       .  S
C757        C836   1.554       .  S
C758        H765   1.085       .  S
C758        C759   1.368       .  D
C759        C760   1.556       .  S
C759       C1143   1.513       .  S
C760        C764   1.568       .  S
C760        C762   1.549       .  S
C760        H766   1.109       .  S
C761        H767   1.084       .  S
C761        C762   1.383       .  D
C762        C843   1.509       .  S
C763        H768   1.087       .  S
C763        C764   1.365       .  D
C764        C800   1.512       .  S
C769        C770   1.417       .  A
C769        C774   1.394       .  A
C769       C1182   1.467       .  S
C770        C771   1.398       .  A
C770        H775   1.084       .  S
C771        C772   1.406       .  A
C772        C773   1.417       .  A
C772        H776   1.083       .  S
C773        C774   1.397       .  A
C773        C883   1.476       .  S
C774        H777   1.084       .  S
C778        C779   1.424       .  A
C778        C783   1.399       .  A
C778        C953   1.474       .  S
C779        C780   1.404       .  A
C779        H784   1.083       .  S
C780        C781   1.400       .  A
C781        C782   1.413       .  A
C781        H785   1.083       .  S
C782        C783   1.390       .  A
C782       C1268   1.467       .  S
C783        H786   1.084       .  S
C787        C788   1.420       .  A
C787        C792   1.393       .  A
C787       C1195   1.481       .  S
C788        C789   1.423       .  A
C788        H793   1.082       .  S
C789        C790   1.417       .  A
C790        C791   1.410       .  A
C790        H794   1.081       .  S
C791        C792   1.378       .  A
C791       C1332   1.464       .  S
C792        H795   1.085       .  S
C796        C797   1.403       .  A
C796        C801   1.428       .  A
C796       C1247   1.509       .  S
C797        C798   1.399       .  A
C797        H802   1.083       .  S
C798        C799   1.415       .  A
C798       C1397   1.489       .  S
C799        C800   1.407       .  A
C799        H803   1.084       .  S
C800        C801   1.426       .  A
C801        H804   1.083       .  S
C805        C806   1.395       .  A
C805        C810   1.423       .  A
C805       C1345   1.479       .  S
C806        C807   1.386       .  A
C806        H811   1.084       .  S
C807        C808   1.422       .  A
C807       C1032   1.483       .  S
C808        C809   1.424       .  A
C808        H812   1.083       .  S
C809        C810   1.411       .  A
C810        H813   1.083       .  S
C814        C815   1.418       .  A
C814        C819   1.402       .  A
C814       C1097   1.479       .  S
C815        C816   1.406       .  A
C815        H820   1.083       .  S
C816        C817   1.421       .  A
C817        C818   1.419       .  A
C817        H821   1.083       .  S
C818        C819   1.393       .  A
C818       C1403   1.487       .  S
C819        H822   1.084       .  S
C823        C824   1.434       .  A
C823        C828   1.402       .  A
C823        C895   1.515       .  S
C824        C825   1.432       .  A
C824        H829   1.083       .  S
C825        C826   1.410       .  A
C826        C827   1.417       .  A
C826        H830   1.084       .  S
C827        C828   1.397       .  A
C827       C1045   1.491       .  S
C828        H831   1.083       .  S
C832        C833   1.393       .  A
C832        C837   1.425       .  A
C832        C947   1.485       .  S
C833        C834   1.381       .  A
C833        H838   1.085       .  S
C834        C835   1.405       .  A
C834       C1103   1.464       .  S
C835        C836   1.417       .  A
C835        H839   1.082       .  S
C836        C837   1.424       .  A
C837        H840   1.082       .  S
C841        C842   1.424       .  A
C841        C846   1.398       .  A
C841       C1187   1.474       .  S
C842        C843   1.404       .  A
C842        H847   1.083       .  S
C843        C844   1.401       .  A
C844        C845   1.413       .  A
C844        H848   1.083       .  S
C845        C846   1.389       .  A
C845        C902   1.467       .  S
C846        H849   1.084       .  S
C850        C851   1.418       .  A
C850        C855   1.396       .  A
C850       C1249   1.477       .  S
C851        C852   1.407       .  A
C851        H856   1.082       .  S
C852        C853   1.397       .  A
C853        C854   1.416       .  A
C853        H857   1.084       .  S
C854        C855   1.394       .  A
C854        C948   1.464       .  S
C855        H858   1.084       .  S
Zr859       O860   2.433   1_455  S
Zr859       O861   2.433       .  S
Zr859       O862   2.463       .  S
Zr859       O865   2.432       .  S
Zr859       O867   2.366       .  S
Zr859       O868   2.385   1_565  S
Zr859       O869   2.411   1_455  S
Zr859       O870   2.410   1_455  S
O860        H916   0.990   1_655  S
O860        H924   0.990       .  S
O861        C881   1.283       .  A
O862        C883   1.289       .  A
O863       Zr873   2.327       .  S
O863        C882   1.264   1_545  A
O864       Zr872   2.388       .  S
O864        C883   1.271       .  A
O865        C882   1.290   1_455  A
O866       Zr874   2.487   1_565  S
O866        C881   1.299       .  A
O867       Zr872   2.352       .  S
O867       Zr874   2.343   1_565  S
O868       Zr873   2.380   1_455  S
O868       Zr874   2.349       .  S
O868        H903   0.965       .  S
O869       Zr872   2.389   1_655  S
O869       Zr889   2.423       .  S
O869        H906   0.966       .  S
O870       Zr873   2.389   1_565  S
O870       Zr889   2.410       .  S
Zr871       O896   2.435   1_655  S
Zr871       O890   2.437       .  S
Zr871       O898   2.474       .  S
Zr871       O886   2.439   1_655  S
Zr871       O877   2.407   1_655  S
Zr871       O878   2.426   1_655  S
Zr871       O879   2.363   1_545  S
Zr871       O880   2.371       .  S
Zr872       O891   2.439       .  S
Zr872       O884   2.436       .  S
Zr872       O885   2.335       .  S
Zr872       O878   2.401   1_565  S
Zr872       O879   2.379   1_455  S
Zr873       O875   2.437       .  S
Zr873       O897   2.436   1_655  S
Zr873       O899   2.352       .  S
Zr873       O877   2.377   1_655  S
Zr873       O880   2.359       .  S
Zr874       O900   2.437       .  S
Zr874       O901   2.435       .  S
Zr874       O876   2.435       .  S
Zr874       O877   2.419       .  S
Zr874       O878   2.416       .  S
O875        H912   0.990       .  S
O876        H907   0.990       .  S
O876        H921   0.990   1_545  S
O878        H904   0.966       .  S
O879       Zr889   2.335       .  S
O880       Zr889   2.346   1_545  S
O880        H905   0.964       .  S
C881        C991   1.511       .  S
C882        C949   1.422       .  S
O884        H920   0.990       .  S
O885        C887   1.267       .  A
O886        C887   1.291   1_545  A
O888       Zr889   2.437       .  S
O888        H917   0.990       .  S
Zr889       O892   2.436       .  S
Zr889       O893   2.439       .  S
Zr889       O894   2.499   1_565  S
O890        C895   1.284       .  A
O891        H908   0.990   1_455  S
O891        H923   0.990       .  S
O892        H909   0.990       .  S
O893        H913   0.990   1_565  S
O893        H922   0.990       .  S
O894        C895   1.302       .  A
O896        H915   0.990       .  S
O896        H919   0.990       .  S
O897        H911   0.990   1_455  S
O897        H918   0.990       .  S
O898        C902   1.292       .  A
O899        C902   1.271       .  A
O900        H910   0.990       .  S
O901        H914   0.990       .  S
Zr925       O926   2.436   1_655  S
Zr925       O927   2.388       .  S
Zr925       O928   2.450       .  S
Zr925       O931   2.468       .  S
Zr925       O933   2.366   1_545  S
Zr925       O934   2.378       .  S
Zr925       O935   2.409   1_655  S
Zr925       O936   2.398   1_655  S
O926        H982   0.990       .  S
O926        H990   0.990       .  S
O927        C947   1.275       .  A
O928        C949   1.293   1_545  A
O929       Zr939   2.363       .  S
O929        C948   1.272       .  A
O930       Zr938   2.331       .  S
O930        C949   1.265   1_455  A
O931        C948   1.292       .  A
O932       Zr940   2.482   1_545  S
O932        C947   1.299       .  A
O933       Zr938   2.372   1_655  S
O933       Zr940   2.334       .  S
O934       Zr939   2.356       .  S
O934       Zr940   2.350   1_545  S
O934        H969   0.964       .  S
O935       Zr938   2.404   1_545  S
O935       Zr955   2.401       .  S
O935        H972   0.965       .  S
O936       Zr939   2.383   1_455  S
O936       Zr955   2.408       .  S
Zr937       O962   2.434   1_455  S
Zr937       O956   2.394       .  S
Zr937       O964   2.428       .  S
Zr937       O952   2.472       .  S
Zr937       O943   2.406   1_455  S
Zr937       O944   2.399   1_455  S
Zr937       O945   2.355       .  S
Zr937       O946   2.389   1_565  S
Zr938       O957   2.443       .  S
Zr938       O950   2.438       .  S
Zr938       O951   2.375       .  S
Zr938       O944   2.387   1_455  S
Zr938       O945   2.343       .  S
Zr939       O941   2.437   1_655  S
Zr939       O963   2.439       .  S
Zr939       O965   2.330       .  S
Zr939       O943   2.393   1_545  S
Zr939       O946   2.375   1_655  S
Zr940       O966   2.435       .  S
Zr940       O967   2.434       .  S
Zr940       O942   2.438       .  S
Zr940       O943   2.407       .  S
Zr940       O944   2.416       .  S
O941        H978   0.991   1_455  S
O942        H973   0.990       .  S
O942        H987   0.990       .  S
O944        H970   0.966       .  S
O945       Zr955   2.342   1_565  S
O946       Zr955   2.348       .  S
O946        H971   0.964       .  S
O950        H986   0.990   1_455  S
O951        C953   1.272       .  A
O952        C953   1.293       .  A
O954       Zr955   2.437       .  S
O954        H983   0.990       .  S
Zr955       O958   2.436       .  S
Zr955       O959   2.440       .  S
Zr955       O960   2.458   1_545  S
O956        C961   1.276       .  A
O957        H974   0.990       .  S
O957        H989   0.990       .  S
O958        H975   0.990   1_545  S
O959        H979   0.990       .  S
O959        H988   0.990       .  S
O960        C961   1.294       .  A
C961       C1000   1.483       .  S
O962        H981   0.990       .  S
O962        H985   0.990       .  S
O963        H977   0.991       .  S
O963        H984   0.990       .  S
O964        C968   1.287       .  A
O965        C968   1.266   1_645  A
O966        H976   0.990       .  S
O967        H980   0.990       .  S
C991        C992   1.403       .  A
C991        C996   1.429       .  A
C992        C993   1.400       .  A
C992        H997   1.083       .  S
C993        C994   1.414       .  A
C993       C1031   1.490       .  S
C994        C995   1.407       .  A
C994        H998   1.084       .  S
C995        C996   1.427       .  A
C996        H999   1.083       .  S
C1000      C1001   1.421       .  A
C1000      C1005   1.393       .  A
C1001      C1002   1.423       .  A
C1001      H1006   1.082       .  S
C1002      C1003   1.419       .  A
C1003      C1004   1.412       .  A
C1003      H1007   1.081       .  S
C1004      C1005   1.378       .  A
C1004      C1098   1.465       .  S
C1005      H1008   1.085       .  S
Zr1009     O1010   2.435       .  S
Zr1009     O1011   2.404       .  S
Zr1009     O1012   2.493       .  S
Zr1009     O1015   2.506       .  S
Zr1009     O1017   2.379       .  S
Zr1009     O1018   2.378       .  S
Zr1009     O1019   2.421       .  S
Zr1009     O1020   2.410       .  S
O1010      H1066   0.990       .  S
O1010      H1074   0.990       .  S
O1011      C1031   1.280       .  A
O1012      C1033   1.294       .  A
O1013     Zr1023   2.385       .  S
O1013      C1032   1.274       .  A
O1014     Zr1022   2.417       .  S
O1014      C1033   1.277   1_545  A
O1015      C1032   1.302       .  A
O1016     Zr1024   2.467   1_565  S
O1016      C1031   1.294       .  A
O1017     Zr1022   2.371   1_565  S
O1017     Zr1024   2.351   1_565  S
O1018     Zr1023   2.376       .  S
O1018     Zr1024   2.356   1_565  S
O1018      H1053   0.965       .  S
O1019     Zr1022   2.394   1_565  S
O1019     Zr1039   2.412       .  S
O1019      H1056   0.966       .  S
O1020     Zr1023   2.389       .  S
O1020     Zr1039   2.422       .  S
Zr1021     O1046   2.435       .  S
Zr1021     O1040   2.393       .  S
Zr1021     O1048   2.505       .  S
Zr1021     O1036   2.500       .  S
Zr1021     O1027   2.413       .  S
Zr1021     O1028   2.413       .  S
Zr1021     O1029   2.379       .  S
Zr1021     O1030   2.382   1_545  S
Zr1022     O1041   2.437       .  S
Zr1022     O1034   2.435       .  S
Zr1022     O1035   2.397       .  S
Zr1022     O1028   2.398       .  S
Zr1022     O1029   2.380       .  S
Zr1023     O1025   2.435       .  S
Zr1023     O1047   2.438       .  S
Zr1023     O1049   2.369       .  S
Zr1023     O1027   2.390   1_565  S
Zr1023     O1030   2.379       .  S
Zr1024     O1050   2.439       .  S
Zr1024     O1051   2.434       .  S
Zr1024     O1026   2.434       .  S
Zr1024     O1027   2.412       .  S
Zr1024     O1028   2.405       .  S
O1025      H1062   0.990       .  S
O1026      H1057   0.990       .  S
O1026      H1071   0.990       .  S
O1028      H1054   0.966       .  S
O1029     Zr1039   2.362   1_545  S
O1030     Zr1039   2.348       .  S
O1030      H1055   0.964       .  S
C1033      C1099   1.475       .  S
O1034      H1070   0.990       .  S
O1035      C1037   1.277       .  A
O1036      C1037   1.300       .  A
C1037      C1141   1.489       .  S
O1038     Zr1039   2.439       .  S
O1038      H1067   0.990       .  S
Zr1039     O1042   2.438       .  S
Zr1039     O1043   2.440       .  S
Zr1039     O1044   2.481   1_565  S
O1040      C1045   1.277       .  A
O1041      H1058   0.990       .  S
O1041      H1073   0.989       .  S
O1042      H1059   0.990   1_565  S
O1043      H1063   0.990       .  S
O1043      H1072   0.990       .  S
O1044      C1045   1.296       .  A
O1046      H1065   0.990       .  S
O1046      H1069   0.990       .  S
O1047      H1061   0.990       .  S
O1047      H1068   0.990   1_565  S
O1048      C1052   1.297       .  A
O1049      C1052   1.274   1_565  A
O1050      H1060   0.990   1_545  S
O1051      H1064   0.990       .  S
Zr1075     O1076   2.436   1_565  S
Zr1075     O1077   2.390       .  S
Zr1075     O1078   2.489       .  S
Zr1075     O1081   2.479       .  S
Zr1075     O1083   2.376       .  S
Zr1075     O1084   2.379       .  S
Zr1075     O1085   2.410   1_565  S
Zr1075     O1086   2.411   1_565  S
O1076      H1132   0.990   1_545  S
O1076      H1140   0.990       .  S
O1077      C1097   1.277       .  A
O1078      C1099   1.294       .  A
O1079     Zr1089   2.388       .  S
O1079      C1098   1.275       .  A
O1080     Zr1088   2.419   1_565  S
O1080      C1099   1.278       .  A
O1081      C1098   1.297       .  A
O1082     Zr1090   2.463       .  S
O1082      C1097   1.293       .  A
O1083     Zr1088   2.369   1_565  S
O1083     Zr1090   2.359       .  S
O1084     Zr1089   2.377       .  S
O1084     Zr1090   2.344       .  S
O1084      H1119   0.963       .  S
O1085     Zr1088   2.393       .  S
O1085     Zr1105   2.410       .  S
O1085      H1122   0.966       .  S
O1086     Zr1089   2.392   1_545  S
O1086     Zr1105   2.414       .  S
Zr1087     O1112   2.435   1_545  S
Zr1087     O1106   2.374       .  S
Zr1087     O1114   2.496       .  S
Zr1087     O1102   2.460       .  S
Zr1087     O1093   2.396   1_545  S
Zr1087     O1094   2.414   1_545  S
Zr1087     O1095   2.373       .  S
Zr1087     O1096   2.375       .  S
Zr1088     O1107   2.435       .  S
Zr1088     O1100   2.434   1_545  S
Zr1088     O1101   2.395       .  S
Zr1088     O1094   2.400   1_545  S
Zr1088     O1095   2.369       .  S
Zr1089     O1091   2.435   1_565  S
Zr1089     O1113   2.434       .  S
Zr1089     O1115   2.384   1_565  S
Zr1089     O1093   2.393       .  S
Zr1089     O1096   2.377   1_565  S
Zr1090     O1116   2.437       .  S
Zr1090     O1117   2.436       .  S
Zr1090     O1092   2.436       .  S
Zr1090     O1093   2.413       .  S
Zr1090     O1094   2.400       .  S
O1091      H1128   0.990       .  S
O1092      H1123   0.990       .  S
O1092      H1137   0.990       .  S
O1094      H1120   0.966       .  S
O1095     Zr1105   2.344       .  S
O1096     Zr1105   2.349       .  S
O1096      H1121   0.965       .  S
O1100      H1136   0.990       .  S
O1101      C1103   1.277       .  A
O1102      C1103   1.293       .  A
O1104     Zr1105   2.438       .  S
O1104      H1133   0.990       .  S
Zr1105     O1108   2.437       .  S
Zr1105     O1109   2.439       .  S
Zr1105     O1110   2.476       .  S
O1106      C1111   1.274       .  A
O1107      H1124   0.989       .  S
O1107      H1139   0.987       .  S
O1108      H1125   0.990       .  S
O1109      H1129   0.990       .  S
O1109      H1138   0.990       .  S
O1110      C1111   1.297       .  A
C1111      C1154   1.479       .  S
O1112      H1131   0.990       .  S
O1112      H1135   0.990       .  S
O1113      H1127   0.990       .  S
O1113      H1134   0.990       .  S
O1114      C1118   1.296       .  A
O1115      C1118   1.276       .  A
O1116      H1126   0.990       .  S
O1117      H1130   0.990       .  S
C1141      C1142   1.418       .  A
C1141      C1146   1.394       .  A
C1142      C1143   1.421       .  A
C1142      H1147   1.083       .  S
C1143      C1144   1.404       .  A
C1144      C1145   1.416       .  A
C1144      H1148   1.084       .  S
C1145      C1146   1.403       .  A
C1145      C1331   1.479       .  S
C1146      H1149   1.084       .  S
C1150      C1151   1.423       .  A
C1150      C1155   1.386       .  A
C1150      C1398   1.485       .  S
C1151      C1152   1.425       .  A
C1151      H1156   1.082       .  S
C1152      C1153   1.410       .  A
C1153      C1154   1.423       .  A
C1153      H1157   1.083       .  S
C1154      C1155   1.396       .  A
C1155      H1158   1.084       .  S
Zr1159     O1160   2.432   1_455  S
Zr1159     O1161   2.391       .  S
Zr1159     O1162   2.451       .  S
Zr1159     O1165   2.469       .  S
Zr1159     O1167   2.364       .  S
Zr1159     O1168   2.377       .  S
Zr1159     O1169   2.408   1_455  S
Zr1159     O1170   2.400   1_455  S
O1160      H1216   0.990   1_655  S
O1160      H1224   0.990       .  S
O1161      C1181   1.276       .  A
O1162      C1183   1.293       .  A
O1163     Zr1173   2.366       .  S
O1163      C1182   1.272       .  A
O1164     Zr1172   2.329   1_455  S
O1164      C1183   1.265       .  A
O1165      C1182   1.292       .  A
O1166     Zr1174   2.480       .  S
O1166      C1181   1.298       .  A
O1167     Zr1172   2.371   1_455  S
O1167     Zr1174   2.334       .  S
O1168     Zr1173   2.356       .  S
O1168     Zr1174   2.348       .  S
O1168      H1203   0.964       .  S
O1169     Zr1172   2.399       .  S
O1169     Zr1189   2.399       .  S
O1169      H1206   0.966       .  S
O1170     Zr1173   2.383   1_655  S
O1170     Zr1189   2.412       .  S
Zr1171     O1196   2.434   1_655  S
Zr1171     O1190   2.391       .  S
Zr1171     O1198   2.428       .  S
Zr1171     O1186   2.471       .  S
Zr1171     O1177   2.404   1_655  S
Zr1171     O1178   2.395   1_655  S
Zr1171     O1179   2.358       .  S
Zr1171     O1180   2.391       .  S
Zr1172     O1191   2.444       .  S
Zr1172     O1184   2.436   1_655  S
Zr1172     O1185   2.376       .  S
Zr1172     O1178   2.387   1_655  S
Zr1172     O1179   2.340       .  S
Zr1173     O1175   2.435   1_455  S
Zr1173     O1197   2.439       .  S
Zr1173     O1199   2.335       .  S
Zr1173     O1177   2.393       .  S
Zr1173     O1180   2.378   1_455  S
Zr1174     O1200   2.437       .  S
Zr1174     O1201   2.435       .  S
Zr1174     O1176   2.437       .  S
Zr1174     O1177   2.405       .  S
Zr1174     O1178   2.416       .  S
O1175      H1212   0.990   1_655  S
O1176      H1207   0.990       .  S
O1176      H1221   0.990       .  S
O1178      H1204   0.966       .  S
O1179     Zr1189   2.341       .  S
O1180     Zr1189   2.352       .  S
O1180      H1205   0.965       .  S
C1181      C1291   1.486       .  S
C1183      C1248   1.422       .  S
O1184      H1220   0.990       .  S
O1185      C1187   1.272       .  A
O1186      C1187   1.293       .  A
O1188     Zr1189   2.439       .  S
O1188      H1217   0.990       .  S
Zr1189     O1192   2.438       .  S
Zr1189     O1193   2.439       .  S
Zr1189     O1194   2.462       .  S
O1190      C1195   1.276       .  A
O1191      H1208   0.990       .  S
O1191      H1223   0.990       .  S
O1192      H1209   0.990       .  S
O1193      H1213   0.990       .  S
O1193      H1222   0.990       .  S
O1194      C1195   1.295       .  A
O1196      H1215   0.990       .  S
O1196      H1219   0.990       .  S
O1197      H1211   0.991       .  S
O1197      H1218   0.990       .  S
O1198      C1202   1.287   1_655  A
O1199      C1202   1.267       .  A
O1200      H1210   0.990       .  S
O1201      H1214   0.990       .  S
Zr1225     O1226   2.435   1_655  S
Zr1225     O1227   2.436       .  S
Zr1225     O1228   2.464       .  S
Zr1225     O1231   2.433   1_655  S
Zr1225     O1233   2.367       .  S
Zr1225     O1234   2.385       .  S
Zr1225     O1235   2.415   1_655  S
Zr1225     O1236   2.414   1_655  S
O1226      H1282   0.990   1_455  S
O1226      H1290   0.990       .  S
O1227      C1247   1.284       .  A
O1228      C1249   1.289       .  A
O1229     Zr1239   2.328       .  S
O1229      C1248   1.264       .  A
O1230     Zr1238   2.390       .  S
O1230      C1249   1.270       .  A
O1231      C1248   1.290       .  A
O1232     Zr1240   2.481       .  S
O1232      C1247   1.298       .  A
O1233     Zr1238   2.353       .  S
O1233     Zr1240   2.344       .  S
O1234     Zr1239   2.379   1_655  S
O1234     Zr1240   2.348       .  S
O1234      H1269   0.965       .  S
O1235     Zr1238   2.391   1_455  S
O1235     Zr1255   2.424       .  S
O1235      H1272   0.966       .  S
O1236     Zr1239   2.390       .  S
O1236     Zr1255   2.415       .  S
Zr1237     O1262   2.434   1_455  S
Zr1237     O1256   2.432       .  S
Zr1237     O1264   2.475       .  S
Zr1237     O1252   2.436       .  S
Zr1237     O1243   2.405   1_455  S
Zr1237     O1244   2.422   1_455  S
Zr1237     O1245   2.367       .  S
Zr1237     O1246   2.369       .  S
Zr1238     O1257   2.439       .  S
Zr1238     O1250   2.436       .  S
Zr1238     O1251   2.341       .  S
Zr1238     O1244   2.399       .  S
Zr1238     O1245   2.380   1_655  S
Zr1239     O1241   2.435       .  S
Zr1239     O1263   2.437       .  S
Zr1239     O1265   2.348       .  S
Zr1239     O1243   2.377   1_455  S
Zr1239     O1246   2.358       .  S
Zr1240     O1266   2.437       .  S
Zr1240     O1267   2.435       .  S
Zr1240     O1242   2.435       .  S
Zr1240     O1243   2.417       .  S
Zr1240     O1244   2.411       .  S
O1241      H1278   0.990       .  S
O1242      H1273   0.990       .  S
O1242      H1287   0.990       .  S
O1244      H1270   0.966       .  S
O1245     Zr1255   2.337       .  S
O1246     Zr1255   2.346       .  S
O1246      H1271   0.964       .  S
O1250      H1286   0.990       .  S
O1251      C1253   1.268       .  A
O1252      C1253   1.290   1_455  A
O1254     Zr1255   2.439       .  S
O1254      H1283   0.990       .  S
Zr1255     O1258   2.438       .  S
Zr1255     O1259   2.440       .  S
Zr1255     O1260   2.499       .  S
O1256      C1261   1.283       .  A
O1257      H1274   0.990   1_655  S
O1257      H1289   0.990       .  S
O1258      H1275   0.990       .  S
O1259      H1279   0.990       .  S
O1259      H1288   0.989       .  S
O1260      C1261   1.301       .  A
C1261      C1300   1.514       .  S
O1262      H1281   0.990       .  S
O1262      H1285   0.990       .  S
O1263      H1277   0.990       .  S
O1263      H1284   0.990   1_455  S
O1264      C1268   1.293       .  A
O1265      C1268   1.270       .  A
O1266      H1276   0.990       .  S
O1267      H1280   0.990       .  S
C1291      C1292   1.426       .  A
C1291      C1296   1.393       .  A
C1292      C1293   1.425       .  A
C1292      H1297   1.082       .  S
C1293      C1294   1.418       .  A
C1294      C1295   1.408       .  A
C1294      H1298   1.082       .  S
C1295      C1296   1.381       .  A
C1295      C1337   1.465       .  S
C1296      H1299   1.085       .  S
C1300      C1301   1.433       .  A
C1300      C1305   1.402       .  A
C1301      C1302   1.431       .  A
C1301      H1306   1.083       .  S
C1302      C1303   1.408       .  A
C1303      C1304   1.416       .  A
C1303      H1307   1.084       .  S
C1304      C1305   1.397       .  A
C1304      C1411   1.490       .  S
C1305      H1308   1.083       .  S
Zr1309     O1310   2.434       .  S
Zr1309     O1311   2.390       .  S
Zr1309     O1312   2.488       .  S
Zr1309     O1315   2.480       .  S
Zr1309     O1317   2.377       .  S
Zr1309     O1318   2.380       .  S
Zr1309     O1319   2.410       .  S
Zr1309     O1320   2.411       .  S
O1310      H1366   0.990       .  S
O1310      H1374   0.990       .  S
O1311      C1331   1.277       .  A
O1312      C1333   1.294       .  A
O1313     Zr1323   2.385       .  S
O1313      C1332   1.275       .  A
O1314     Zr1322   2.408       .  S
O1314      C1333   1.277       .  A
O1315      C1332   1.296       .  A
O1316     Zr1324   2.465       .  S
O1316      C1331   1.292       .  A
O1317     Zr1322   2.371       .  S
O1317     Zr1324   2.359       .  S
O1318     Zr1323   2.378       .  S
O1318     Zr1324   2.344       .  S
O1318      H1353   0.964       .  S
O1319     Zr1322   2.390       .  S
O1319     Zr1339   2.406       .  S
O1319      H1356   0.966       .  S
O1320     Zr1323   2.391       .  S
O1320     Zr1339   2.415       .  S
Zr1321     O1346   2.434       .  S
Zr1321     O1340   2.375       .  S
Zr1321     O1348   2.498       .  S
Zr1321     O1336   2.464       .  S
Zr1321     O1327   2.399       .  S
Zr1321     O1328   2.416       .  S
Zr1321     O1329   2.374       .  S
Zr1321     O1330   2.379       .  S
Zr1322     O1341   2.438       .  S
Zr1322     O1334   2.435       .  S
Zr1322     O1335   2.390       .  S
Zr1322     O1328   2.399       .  S
Zr1322     O1329   2.369       .  S
Zr1323     O1325   2.435       .  S
Zr1323     O1347   2.436       .  S
Zr1323     O1349   2.383       .  S
Zr1323     O1327   2.393       .  S
Zr1323     O1330   2.376       .  S
Zr1324     O1350   2.436       .  S
Zr1324     O1351   2.435       .  S
Zr1324     O1326   2.437       .  S
Zr1324     O1327   2.415       .  S
Zr1324     O1328   2.403       .  S
O1325      H1362   0.990       .  S
O1326      H1357   0.990       .  S
O1326      H1371   0.990       .  S
O1328      H1354   0.966       .  S
O1329     Zr1339   2.348       .  S
O1330     Zr1339   2.349       .  S
O1330      H1355   0.965       .  S
C1333      C1399   1.471       .  S
O1334      H1370   0.990       .  S
O1335      C1337   1.276       .  A
O1336      C1337   1.294       .  A
O1338     Zr1339   2.439       .  S
O1338      H1367   0.990       .  S
Zr1339     O1342   2.437       .  S
Zr1339     O1343   2.440       .  S
Zr1339     O1344   2.475       .  S
O1340      C1345   1.274       .  A
O1341      H1358   0.990       .  S
O1341      H1373   0.988       .  S
O1342      H1359   0.990       .  S
O1343      H1363   0.990       .  S
O1343      H1372   0.990       .  S
O1344      C1345   1.297       .  A
O1346      H1365   0.990       .  S
O1346      H1369   0.990       .  S
O1347      H1361   0.990       .  S
O1347      H1368   0.989       .  S
O1348      C1352   1.296       .  A
O1349      C1352   1.276       .  A
O1350      H1360   0.990       .  S
O1351      H1364   0.990       .  S
Zr1375     O1376   2.433       .  S
Zr1375     O1377   2.399       .  S
Zr1375     O1378   2.487       .  S
Zr1375     O1381   2.502       .  S
Zr1375     O1383   2.378       .  S
Zr1375     O1384   2.377       .  S
Zr1375     O1385   2.419       .  S
Zr1375     O1386   2.409       .  S
O1376      H1432   0.990       .  S
O1376      H1440   0.990       .  S
O1377      C1397   1.279       .  A
O1378      C1399   1.293       .  A
O1379     Zr1389   2.392       .  S
O1379      C1398   1.275       .  A
O1380     Zr1388   2.415       .  S
O1380      C1399   1.277       .  A
O1381      C1398   1.301       .  A
O1382     Zr1390   2.469       .  S
O1382      C1397   1.294       .  A
O1383     Zr1388   2.372       .  S
O1383     Zr1390   2.350       .  S
O1384     Zr1389   2.377       .  S
O1384     Zr1390   2.356       .  S
O1384      H1419   0.965       .  S
O1385     Zr1388   2.392       .  S
O1385     Zr1405   2.408       .  S
O1385      H1422   0.966       .  S
O1386     Zr1389   2.390       .  S
O1386     Zr1405   2.422       .  S
Zr1387     O1412   2.436       .  S
Zr1387     O1406   2.397       .  S
Zr1387     O1414   2.504       .  S
Zr1387     O1402   2.497       .  S
Zr1387     O1393   2.410       .  S
Zr1387     O1394   2.413       .  S
Zr1387     O1395   2.379       .  S
Zr1387     O1396   2.381       .  S
Zr1388     O1407   2.438       .  S
Zr1388     O1400   2.434       .  S
Zr1388     O1401   2.397       .  S
Zr1388     O1394   2.399       .  S
Zr1388     O1395   2.379       .  S
Zr1389     O1391   2.436       .  S
Zr1389     O1413   2.437       .  S
Zr1389     O1415   2.372       .  S
Zr1389     O1393   2.393       .  S
Zr1389     O1396   2.380       .  S
Zr1390     O1416   2.439       .  S
Zr1390     O1417   2.435       .  S
Zr1390     O1392   2.435       .  S
Zr1390     O1393   2.413       .  S
Zr1390     O1394   2.406       .  S
O1391      H1428   0.990       .  S
O1392      H1423   0.990       .  S
O1392      H1437   0.990       .  S
O1394      H1420   0.966       .  S
O1395     Zr1405   2.359       .  S
O1396     Zr1405   2.349       .  S
O1396      H1421   0.964       .  S
O1400      H1436   0.990       .  S
O1401      C1403   1.277       .  A
O1402      C1403   1.300       .  A
O1404     Zr1405   2.439       .  S
O1404      H1433   0.991       .  S
Zr1405     O1408   2.439       .  S
Zr1405     O1409   2.440       .  S
Zr1405     O1410   2.475       .  S
O1406      C1411   1.278       .  A
O1407      H1424   0.990       .  S
O1407      H1439   0.988       .  S
O1408      H1425   0.990       .  S
O1409      H1429   0.990       .  S
O1409      H1438   0.990       .  S
O1410      C1411   1.295       .  A
O1412      H1431   0.990       .  S
O1412      H1435   0.990       .  S
O1413      H1427   0.990       .  S
O1413      H1434   0.990       .  S
O1414      C1418   1.298       .  A
O1415      C1418   1.274       .  A
O1416      H1426   0.990       .  S
O1417      H1430   0.990       .  S
