geometry optimzed in LAMMPS
_audit_creation_date              2020-11-30 
_audit_creation_method            'lammps2cif' 
_symmetry_space_group_name_H-M    'P1' 
_symmetry_Int_Tables_number       1 
_symmetry_cell_setting            triclinic 
loop_ 
_symmetry_equiv_pos_as_xyz 
  x,y,z 
_cell_length_a                    34.20025823 
_cell_length_b                    34.20648860031006 
_cell_length_c                    34.20174238310954 
_cell_angle_alpha                 90.12972706988012 
_cell_angle_beta                  89.95416421565976 
_cell_angle_gamma                 90.04411730866295 
loop_ 
_atom_site_label 
_atom_site_type_symbol 
_atom_site_fract_x 
_atom_site_fract_y 
_atom_site_fract_z 
_atom_site_charge 
O1          O  0.43350512  0.43471434  0.99827778    -0.76300
C2          C  0.42732924  0.53789847  0.92360748     0.84700
O3          O  0.56261827  0.44853565  0.94309885    -0.77400
O4          O  0.53871336  0.58791117  0.96724760    -0.78900
O5          O  0.46930836  0.54155088  0.08227062    -0.78700
O6          O  0.44855288  0.44838280  0.06010140    -0.77300
Zn7        Zn  0.46773886  0.46922783  0.96475228     1.55700
O8          O  0.46648416  0.58670267  0.03520089    -0.78700
Cd9        Cd  0.49061492  0.49169494  0.05426788     1.59700
Cd10       Cd  0.55736102  0.49144269  0.98578146     1.59600
O11         O  0.54136121  0.47267960  0.08247486    -0.78700
O12         O  0.50078054  0.50241830  0.99738306    -1.89200
Cd13       Cd  0.48863354  0.55871649  0.98586093     1.59900
O14         O  0.58681217  0.47195272  0.03550295    -0.78700
O15         O  0.44673033  0.56365930  0.94232068    -0.77300
C16         C  0.53698826  0.42891714  0.92440816     0.85200
C17         C  0.42890440  0.42922912  0.03482498     0.84900
O18         O  0.43250925  0.50150780  0.92964543    -0.76300
C19         C  0.46111817  0.57594984  0.07047461     0.85700
O20         O  0.50053984  0.43408865  0.93015610    -0.76400
C21         C  0.57628973  0.46638518  0.07085106     0.85800
C22         C  0.57372813  0.57689806  0.96057638     0.86100
O23         O  0.58498137  0.54172928  0.96566539    -0.78800
O24         O  0.43255482  0.93254239  0.49927088    -0.76300
C25         C  0.42638126  0.03721171  0.42764383     0.84700
O26         O  0.56122668  0.94670842  0.44332678    -0.77400
O27         O  0.53871524  0.08598299  0.46858551    -0.78900
O28         O  0.46866369  0.03704331  0.58479060    -0.78700
O29         O  0.44890232  0.94430557  0.56112088    -0.77300
Zn30       Zn  0.46693808  0.96758489  0.46623257     1.55700
O31         O  0.46952674  0.08447423  0.53995117    -0.78700
Cd32       Cd  0.49035438  0.98822683  0.55553551     1.59700
Cd33       Cd  0.55681283  0.98946570  0.48622147     1.59600
O34         O  0.54157473  0.97027407  0.58308640    -0.78700
O35         O  0.50047290  0.00026927  0.49893528    -1.89200
Cd36       Cd  0.48908204  0.05701747  0.48906145     1.59900
O37         O  0.58678232  0.97059480  0.53579127    -0.78700
O38         O  0.44572217  0.06260060  0.44697910    -0.77300
C39         C  0.53535151  0.92785317  0.42419264     0.85200
C40         C  0.42859164  0.92604686  0.53573285     0.84900
O41         O  0.43182977  0.00070910  0.43241245    -0.76300
C42         C  0.46272381  0.07236457  0.57456259     0.85700
O43         O  0.49897723  0.93318173  0.43022131    -0.76400
C44         C  0.57655216  0.96493026  0.57122492     0.85800
C45         C  0.57331639  0.07470585  0.46033766     0.86100
O46         O  0.58439842  0.03942677  0.46496459    -0.78800
O47         O  0.93157179  0.43408248  0.49967463    -0.76300
C48         C  0.92539710  0.53916585  0.42856414     0.84700
O49         O  0.06137835  0.44973304  0.44621275    -0.77400
O50         O  0.03686158  0.58810421  0.47037724    -0.78900
O51         O  0.96976666  0.53991161  0.58665338    -0.78700
O52         O  0.94452840  0.44790808  0.56187847    -0.77300
Zn53       Zn  0.96624232  0.46961745  0.46734894     1.55700
O54         O  0.96889978  0.58661093  0.54102798    -0.78700
Cd55       Cd  0.98774991  0.49016200  0.55685905     1.59700
Cd56       Cd  0.05565385  0.49219418  0.48937869     1.59600
O57         O  0.03716229  0.46902995  0.58453249    -0.78700
O58         O  0.99896631  0.50236782  0.50060030    -1.89200
Cd59       Cd  0.98750179  0.55892546  0.49034425     1.59900
O60         O  0.08420407  0.47282302  0.53928807    -0.78700
O61         O  0.94422645  0.56462943  0.44828365    -0.77300
C62         C  0.03594746  0.43059022  0.42673399     0.85200
C63         C  0.92577679  0.42860513  0.53606679     0.84900
O64         O  0.93128001  0.50268463  0.43311460    -0.76300
C65         C  0.96383618  0.57510714  0.57607818     0.85700
O66         O  0.99943578  0.43566206  0.43212309    -0.76400
C67         C  0.07255069  0.46477643  0.57375573     0.85800
C68         C  0.07203267  0.57745165  0.46427127     0.86100
O69         O  0.08364815  0.54256114  0.47014183    -0.78800
O70         O  0.07062967  0.06888338  0.99993183    -0.76300
C71         C  0.96487471  0.07628482  0.07167708     0.84700
O72         O  0.05531533  0.94018076  0.05459205    -0.77400
O73         O  0.91690116  0.96377797  0.02977602    -0.78900
O74         O  0.96526453  0.03226911  0.91422467    -0.78700
O75         O  0.05800670  0.05375139  0.93790057    -0.77300
Zn76       Zn  0.03487842  0.03510544  0.03303673     1.55700
O77         O  0.91796185  0.03194181  0.95933905    -0.78700
Cd78       Cd  0.01420106  0.01225165  0.94345448     1.59700
Cd79       Cd  0.01319934  0.94565944  0.01146648     1.59600
O80         O  0.03225054  0.96178403  0.91523770    -0.78700
O81         O  0.00229825  0.00205466  0.99994970    -1.89200
Cd82       Cd  0.94562078  0.01347795  0.01010129     1.59900
O83         O  0.03284500  0.91644512  0.96213037    -0.78700
O84         O  0.93954087  0.05703187  0.05219104    -0.77300
C85         C  0.07418856  0.96575310  0.07409251     0.85200
C86         C  0.07692157  0.07325159  0.96344495     0.84900
O87         O  0.00143172  0.07057440  0.06699822    -0.76300
C88         C  0.92994019  0.03787821  0.92455482     0.85700
O89         O  0.06891183  0.00222752  0.06865600    -0.76400
C90         C  0.03819600  0.92695562  0.92683882     0.85800
C91         C  0.92800187  0.92876789  0.03590585     0.86100
O92         O  0.96308057  0.91756545  0.03040517    -0.78800
O93         O  0.43026742  0.81864074  0.24853601    -0.76300
C94         C  0.42534279  0.71409131  0.32077367     0.84700
O95         O  0.56002919  0.80522568  0.30120666    -0.77400
O96         O  0.53645756  0.66528348  0.27728437    -0.78900
O97         O  0.46640067  0.71386797  0.16221002    -0.78700
O98         O  0.44515179  0.80659602  0.18636053    -0.77300
Zn99       Zn  0.46523992  0.78371214  0.28084157     1.55700
O100        O  0.46568143  0.66720421  0.20792066    -0.78700
Cd101      Cd  0.48746213  0.76334659  0.19107315     1.59700
Cd102      Cd  0.55490473  0.76184801  0.25905339     1.59600
O103        O  0.53799717  0.78323073  0.16297850    -0.78700
O104        O  0.49827443  0.75115783  0.24752439    -1.89200
Cd105      Cd  0.48663564  0.69451228  0.25806257     1.59900
O106        O  0.58423557  0.78118905  0.20909652    -0.78700
O107        O  0.44431452  0.68868814  0.30114842    -0.77300
C108        C  0.53448776  0.82451269  0.32036274     0.85200
C109        C  0.42548765  0.82501255  0.21217366     0.84900
O110        O  0.43072837  0.75059264  0.31569706    -0.76300
C111        C  0.45953357  0.67885796  0.17307308     0.85700
O112        O  0.49801601  0.81883394  0.31535903    -0.76400
C113        C  0.57325037  0.78830542  0.17417335     0.85800
C114        C  0.57120950  0.67646931  0.28496672     0.86100
O115        O  0.58240107  0.71173797  0.28016187    -0.78800
O116        O  0.50001114  0.31956540  0.81605078    -0.76300
C117        C  0.42491847  0.32184516  0.71260958     0.84700
O118        O  0.44866319  0.18926338  0.80613266    -0.77400
O119        O  0.46903421  0.20977419  0.66526238    -0.78900
O120        O  0.58351209  0.28469515  0.70842989    -0.78700
O121        O  0.56200012  0.30605450  0.80171407    -0.77300
Zn122      Zn  0.46693529  0.28398241  0.78214942     1.55700
O123        O  0.53675544  0.28246566  0.66288975    -0.78700
Cd124      Cd  0.55652301  0.26352381  0.75883381     1.59700
Cd125      Cd  0.48958188  0.19466240  0.76168016     1.59600
O126        O  0.58631882  0.21399747  0.77781827    -0.78700
O127        O  0.49989395  0.25112533  0.74911862    -1.89200
Cd128      Cd  0.48788612  0.26097560  0.69246997     1.59900
O129        O  0.54065991  0.16720768  0.77999985    -0.78700
O130        O  0.44381786  0.30223554  0.68712284    -0.77300
C131        C  0.42914181  0.21480419  0.82501192     0.85200
C132        C  0.53651023  0.32515444  0.82109270     0.84900
O133        O  0.43118072  0.31759896  0.74909743    -0.76300
C134        C  0.57168393  0.29016748  0.67350486     0.85700
O135        O  0.43327428  0.25122215  0.81835329    -0.76400
C136        C  0.57578820  0.17887676  0.78464701     0.85800
C137        C  0.46221237  0.17522973  0.67753105     0.86100
O138        O  0.46786471  0.16519420  0.71297178    -0.78800
O139        O  0.31760347  0.50000724  0.81602676    -0.76300
C140        C  0.21357585  0.42574527  0.82302578     0.84700
O141        O  0.30191312  0.44396639  0.68681675    -0.77400
O142        O  0.16443471  0.46749140  0.71113872    -0.78900
O143        O  0.21023033  0.58371100  0.77870255    -0.78700
O144        O  0.30347863  0.56182269  0.80167876    -0.77300
Zn145      Zn  0.28250403  0.46640456  0.78201379     1.55700
O146        O  0.16460878  0.53686082  0.78023247    -0.78700
Cd147      Cd  0.26044504  0.55574142  0.75917521     1.59700
Cd148      Cd  0.26031166  0.48786934  0.69220627     1.59600
O149        O  0.27959526  0.58417283  0.70884192    -0.78700
O150        O  0.24951038  0.49894393  0.74888667    -1.89200
Cd151      Cd  0.19321104  0.48707810  0.76074500     1.59900
O152        O  0.28113667  0.53720821  0.66340778    -0.78700
O153        O  0.18788430  0.44440440  0.80358890    -0.77300
C154        C  0.32139670  0.42513065  0.71237325     0.85200
C155        C  0.32293659  0.53658175  0.82096207     0.84900
O156        O  0.25000184  0.43160878  0.81761145    -0.76300
C157        C  0.17541932  0.57215211  0.78536701     0.85700
O158        O  0.31676045  0.43128126  0.74885510    -0.76400
C159        C  0.28641240  0.57255006  0.67405168     0.85800
C160        C  0.17487806  0.46317648  0.67563528     0.86100
O161        O  0.20958618  0.47008029  0.66390654    -0.78800
O162        O  0.39958406  0.28618138  0.89829371    -0.76300
C163        C  0.48476297  0.37677615  0.87311653     0.84700
O164        O  0.35280655  0.40010836  0.96629130    -0.77400
O165        O  0.39805103  0.46736930  0.84998376    -0.78900
O166        O  0.35178934  0.35089851  0.78293053    -0.78700
O167        O  0.35301633  0.28310472  0.85279853    -0.77300
Zn168      Zn  0.40951661  0.34358243  0.90776080     1.55700
O169        O  0.39686379  0.39807704  0.78155930    -0.78700
Cd170      Cd  0.34215275  0.34119739  0.84160952     1.59700
Cd171      Cd  0.34208487  0.40949298  0.90778159     1.59600
O172        O  0.28376523  0.35143754  0.85227592    -0.78700
O173        O  0.37604896  0.37536708  0.87471166    -1.89200
Cd174      Cd  0.40852305  0.40897569  0.83976931     1.59900
O175        O  0.28369499  0.39838862  0.89769518    -0.83500
O176        O  0.46711929  0.39913463  0.84927470    -0.77300
C177        C  0.37653660  0.37731803  0.98355016     0.85200
C178        C  0.37678909  0.26670946  0.87616941     0.84900
O179        O  0.46648496  0.35454695  0.89672621    -0.76300
C180        C  0.37393677  0.37430463  0.76435507     0.85700
O181        O  0.39946407  0.35465910  0.96487652    -0.76400
C182        C  0.26585582  0.37481125  0.87505635     0.85800
C183        C  0.37502700  0.48546518  0.87296069     0.86100
O184        O  0.35209718  0.46782678  0.89635830    -0.78800
N185        N  0.22413827  0.37453846  0.87525692    -0.01300
C186        C  0.20050281  0.39669312  0.85254444     0.01300
C187        C  0.16183584  0.38822161  0.86109038    -0.21600
C188        C  0.16210729  0.35998440  0.88998027    -0.21800
C189        C  0.20092728  0.35206433  0.89818253     0.01200
H190        H  0.13618969  0.40112118  0.84786307     0.15000
H191        H  0.13672326  0.34675671  0.90345671     0.15000
N192        N  0.37501391  0.52717127  0.87250080    -0.01300
C193        C  0.35243105  0.55031654  0.84971351     0.01300
C194        C  0.36113455  0.58914945  0.85718081    -0.21600
C195        C  0.39003004  0.58950300  0.88543898    -0.21800
C196        C  0.39806084  0.55087375  0.89434836     0.01200
H197        H  0.34802803  0.61448575  0.84359221     0.15000
H198        H  0.40362676  0.61517293  0.89803845     0.15000
N199        N  0.52653799  0.37657699  0.87323180    -0.01300
C200        C  0.55012881  0.39950314  0.89534707     0.01300
C201        C  0.58883652  0.39167710  0.88644684    -0.21600
C202        C  0.58870633  0.36309488  0.85783800    -0.21800
C203        C  0.54992371  0.35439409  0.85018237     0.01200
H204        H  0.61440567  0.40532760  0.89915713     0.15000
H205        H  0.61415310  0.35023760  0.84408103     0.15000
N206        N  0.37324038  0.37359657  0.72261661    -0.01300
C207        C  0.35011547  0.39546236  0.69912410     0.01300
C208        C  0.35738309  0.38601042  0.66042213    -0.21600
C209        C  0.38592043  0.35741921  0.66048075    -0.21800
C210        C  0.39515789  0.35032519  0.69921690     0.01200
H211        H  0.34353058  0.39848296  0.63490461     0.15000
H212        H  0.39852952  0.34344864  0.63501647     0.15000
N213        N  0.37805100  0.22499413  0.87746445    -0.01300
C214        C  0.35627417  0.20152926  0.90078364     0.01300
C215        C  0.36563618  0.16282509  0.89352698    -0.21600
C216        C  0.39397770  0.16283331  0.86469724    -0.21800
C217        C  0.40101585  0.20154347  0.85525925     0.01200
H218        H  0.35315886  0.13733102  0.90746883     0.15000
H219        H  0.40774005  0.13733895  0.85194342     0.15000
N220        N  0.37739194  0.37715580  0.02532333    -0.01300
C221        C  0.40008425  0.39993828  0.04850645     0.01300
C222        C  0.39222165  0.39191734  0.08737178    -0.21600
C223        C  0.36369884  0.36329918  0.08777650    -0.21800
C224        C  0.35505989  0.35476926  0.04914235     0.01200
H225        H  0.40561710  0.40542029  0.11269391     0.15000
H226        H  0.35069155  0.35027339  0.11348734     0.15000
O227        O  0.25120153  0.31823522  0.93268848    -0.76300
C228        C  0.32570215  0.32552273  0.03632115     0.84700
O229        O  0.30819785  0.18930411  0.94955589    -0.77400
O230        O  0.28205027  0.21477929  0.08750486    -0.78900
O231        O  0.16690315  0.27944548  0.04042412    -0.78700
O232        O  0.18939333  0.30405674  0.94727458    -0.77300
Zn233      Zn  0.28480780  0.28439190  0.96775473     1.55700
O234        O  0.21431963  0.28508783  0.08505567    -0.78700
Cd235      Cd  0.19565747  0.26117472  0.99000467     1.59700
Cd236      Cd  0.26437938  0.19481588  0.99130064     1.59600
O237        O  0.16830561  0.21061188  0.97013841    -0.78700
O238        O  0.25246768  0.25145380  0.00117107    -1.89200
Cd239      Cd  0.26381742  0.26408856  0.05735742     1.59900
O240        O  0.21532831  0.16530469  0.97085242    -0.78700
O241        O  0.30700499  0.30634508  0.06219304    -0.77300
C242        C  0.32658369  0.21479388  0.92950425     0.85200
C243        C  0.21462269  0.32327076  0.92761340     0.84900
O244        O  0.31968476  0.32002405  0.99994910    -0.76300
C245        C  0.17870626  0.28818841  0.07470689     0.85700
O246        O  0.31997029  0.25123587  0.93358665    -0.76400
C247        C  0.18016707  0.17575031  0.96439892     0.85800
C248        C  0.28771741  0.17938198  0.07732636     0.86100
O249        O  0.28247517  0.16741688  0.04238790    -0.78800
O250        O  0.74954052  0.56576747  0.18179618    -0.76300
C251        C  0.67972048  0.46432434  0.17567320     0.84700
O252        O  0.69332709  0.55326854  0.31337363    -0.77400
O253        O  0.72170443  0.41505200  0.28518514    -0.78900
O254        O  0.83837610  0.46750507  0.21956023    -0.78700
O255        O  0.81166302  0.56006741  0.19818772    -0.77300
Zn256      Zn  0.71829377  0.53269920  0.21875834     1.55700
O257        O  0.79441199  0.41903609  0.21853916    -0.78700
Cd258      Cd  0.80746907  0.51574403  0.23986952     1.59700
Cd259      Cd  0.73803267  0.51166409  0.30698324     1.59600
O260        O  0.83404433  0.53477513  0.29092123    -0.78700
O261        O  0.75155595  0.50114036  0.25061449    -1.89200
Cd262      Cd  0.74234088  0.44472384  0.23644084     1.59900
O263        O  0.78738815  0.53130155  0.33673457    -0.78700
O264        O  0.70147937  0.43834085  0.19115522    -0.77300
C265        C  0.67611266  0.57320258  0.28701138     0.85200
C266        C  0.78496570  0.57575079  0.17745019     0.84900
O267        O  0.68255555  0.49970037  0.18625404    -0.76300
C268        C  0.82898590  0.43197651  0.21320871     0.85700
O269        O  0.68502389  0.56839432  0.25137441    -0.76400
C270        C  0.82234549  0.53886920  0.32608491     0.85800
C271        C  0.71437358  0.42539381  0.32029014     0.86100
O272        O  0.71920616  0.46024743  0.33264875    -0.78800
O273        O  0.18174999  0.68425326  0.49965733    -0.76300
C274        C  0.28727581  0.67555159  0.57116878     0.84700
O275        O  0.19883050  0.81240199  0.55582985    -0.77400
O276        O  0.33600841  0.78815461  0.53039237    -0.78900
O277        O  0.28830522  0.72061094  0.41392775    -0.78700
O278        O  0.19498005  0.69873703  0.43762646    -0.77300
Zn279      Zn  0.21786070  0.71752052  0.53275500     1.55700
O280        O  0.33496274  0.71984278  0.45966529    -0.78700
Cd281      Cd  0.23882466  0.74053145  0.44308822     1.59700
Cd282      Cd  0.23994181  0.80708387  0.51156451     1.59600
O283        O  0.22000061  0.79122533  0.41537857    -0.78700
O284        O  0.25058065  0.75055855  0.49975429    -1.89200
Cd285      Cd  0.30708841  0.73864529  0.51028849     1.59900
O286        O  0.21863240  0.83621794  0.46279741    -0.78700
O287        O  0.31277542  0.69494341  0.55209116    -0.77300
C288        C  0.17975159  0.78685083  0.57509674     0.85200
C289        C  0.17569508  0.67961014  0.46317260     0.84900
O290        O  0.25078606  0.68136720  0.56630436    -0.76300
C291        C  0.32343386  0.71435892  0.42464965     0.85700
O292        O  0.18439480  0.75038653  0.56896945    -0.76400
C293        C  0.21319138  0.82585880  0.42740816     0.85800
C294        C  0.32545109  0.82349536  0.53573744     0.86100
O295        O  0.29064179  0.83518060  0.52951097    -0.78800
O296        O  0.71029654  0.63956554  0.09607358    -0.76300
C297        C  0.62188755  0.62721841  0.01508602     0.84700
O298        O  0.59701138  0.71890306  0.14388270    -0.77400
O299        O  0.53061322  0.60537311  0.09895726    -0.78900
O300        O  0.65409343  0.53952915  0.13613183    -0.78700
O301        O  0.71058552  0.61887690  0.15649727    -0.77300
Zn302      Zn  0.65432883  0.65803095  0.09148753     1.55700
O303        O  0.59758943  0.53586741  0.10508215    -0.78700
Cd304      Cd  0.65427217  0.59651134  0.15594949     1.59700
Cd305      Cd  0.58804992  0.66120679  0.15695231     1.59600
O306        O  0.63439172  0.59691411  0.21237980    -0.78700
O307        O  0.62050070  0.62798521  0.12286314    -1.89200
Cd308      Cd  0.58840154  0.59316845  0.09002543     1.59900
O309        O  0.60242932  0.65282609  0.21505281    -0.78700
O310        O  0.60153951  0.60067945  0.03147877    -0.77300
C311        C  0.62400878  0.73536050  0.12432526     0.85200
C312        C  0.72919787  0.62926212  0.12618602     0.84900
O313        O  0.64013769  0.65195140  0.03563280    -0.76300
C314        C  0.62671875  0.51933657  0.12118591     0.85700
O315        O  0.64904750  0.71486210  0.10608994    -0.76400
C316        C  0.61927056  0.62436286  0.23211426     0.85800
C317        C  0.51222892  0.62701284  0.12304584     0.86100
O318        O  0.53007337  0.64872016  0.14755138    -0.78800
N319        N  0.62442471  0.62882531  0.97279528    -0.01300
C320        C  0.64819793  0.65107020  0.94924965     0.01300
C321        C  0.64072185  0.64212092  0.91039861    -0.21600
C322        C  0.61212508  0.61375986  0.90980843    -0.21800
C323        C  0.60277486  0.60623443  0.94822950     0.01200
H324        H  0.65481098  0.65469369  0.88502314     0.15000
H325        H  0.59966418  0.60000839  0.88415787     0.15000
N326        N  0.62835543  0.47708070  0.12209617    -0.01300
C327        C  0.60580837  0.45323587  0.09957125     0.01300
C328        C  0.61413874  0.41456456  0.10710554    -0.21600
C329        C  0.64265715  0.41435756  0.13558722    -0.21800
C330        C  0.65090155  0.45297497  0.14476224     0.01200
H331        H  0.60078218  0.38925681  0.09357325     0.15000
H332        H  0.65564301  0.38865081  0.14858756     0.15000
N333        N  0.77169202  0.62907345  0.12579785    -0.01300
C334        C  0.79596847  0.65133450  0.10280416     0.01300
C335        C  0.83456542  0.64237509  0.11074464    -0.21600
C336        C  0.83454730  0.61410555  0.13912368    -0.21800
C337        C  0.79593879  0.60611265  0.14802121     0.01200
H338        H  0.86023020  0.65503659  0.09723010     0.15000
H339        H  0.86017441  0.60049587  0.15169499     0.15000
N340        N  0.47019371  0.62710729  0.12230376    -0.01300
C341        C  0.44692822  0.60497625  0.09907603     0.01300
C342        C  0.40809075  0.61400896  0.10571075    -0.21600
C343        C  0.40763159  0.64276812  0.13427311    -0.21800
C344        C  0.44621313  0.65016022  0.14379827     0.01200
H345        H  0.38292928  0.60118957  0.09141550     0.15000
H346        H  0.38204300  0.65670259  0.14661413     0.15000
N347        N  0.62558542  0.77773551  0.12304667    -0.01300
C348        C  0.64799152  0.80211031  0.10033072     0.01300
C349        C  0.63897856  0.84067443  0.10900168    -0.21600
C350        C  0.61031035  0.84026575  0.13732763    -0.21800
C351        C  0.60265665  0.80153781  0.14531268     0.01200
H352        H  0.65173013  0.86650423  0.09591221     0.15000
H353        H  0.59650967  0.86549066  0.15058342     0.15000
N354        N  0.62137737  0.62369681  0.27437509    -0.01300
C355        C  0.60000272  0.64724000  0.29824703     0.01300
C356        C  0.60957533  0.64091074  0.33684698    -0.21600
C357        C  0.63805606  0.61239412  0.33697917    -0.21800
C358        C  0.64531629  0.60228255  0.29836802     0.01200
H359        H  0.59747028  0.65565637  0.36212619     0.15000
H360        H  0.65249281  0.60081384  0.36260454     0.15000
O361        O  0.68292220  0.75577256  0.06125715    -0.76300
C362        C  0.67840395  0.68071559  0.96089674     0.84700
O363        O  0.81209065  0.69785187  0.05310996    -0.77400
O364        O  0.79030825  0.72350937  0.91336251    -0.78900
O365        O  0.72191101  0.83931378  0.96014568    -0.78700
O366        O  0.69839378  0.81774537  0.05388173    -0.77300
Zn367      Zn  0.71877104  0.72272625  0.02946343     1.55700
O368        O  0.72063082  0.79299863  0.91378252    -0.78700
Cd369      Cd  0.74099349  0.81096689  0.01021362     1.59700
Cd370      Cd  0.80771930  0.74109126  0.01032513     1.59600
O371        O  0.79181363  0.83796147  0.02924256    -0.78700
O372        O  0.75189912  0.75442954  0.99775352    -1.89200
Cd373      Cd  0.73991378  0.74268481  0.94128847     1.59900
O374        O  0.83695077  0.79060207  0.03002844    -0.78700
O375        O  0.69649350  0.69990099  0.93454295    -0.77300
C376        C  0.78515882  0.68136111  0.07293558     0.85200
C377        C  0.67786578  0.79125695  0.07024003     0.84900
O378        O  0.68587748  0.68693017  0.99661885    -0.76300
C379        C  0.71537441  0.82811535  0.92516298     0.85700
O380        O  0.74966476  0.69009369  0.06706086    -0.76400
C381        C  0.82651056  0.82596779  0.03556357     0.85800
C382        C  0.82489241  0.71611499  0.92512796     0.86100
O383        O  0.83562152  0.72081693  0.96050769    -0.78800
O384        O  0.10366618  0.53369952  0.64633974    -0.76300
C385        C  0.12546715  0.62364453  0.73418847     0.84700
O386        O  0.03355410  0.64986930  0.60431006    -0.77400
O387        O  0.15086979  0.71632613  0.64908903    -0.78900
O388        O  0.21710084  0.60221859  0.59982249    -0.78700
O389        O  0.14882264  0.53285618  0.59931080    -0.77300
Zn390      Zn  0.09259261  0.59076041  0.65771100     1.55700
O391        O  0.21805429  0.64597221  0.64833336    -0.78700
Cd392      Cd  0.15855207  0.59167334  0.59012823     1.59700
Cd393      Cd  0.09194894  0.65958056  0.59295644     1.59600
O394        O  0.14713214  0.60353687  0.53214373    -0.78700
O395        O  0.12525410  0.62436581  0.62543168    -1.89200
Cd396      Cd  0.15983651  0.65745897  0.65902238     1.59900
O397        O  0.10141404  0.65004330  0.53409700    -0.78700
O398        O  0.14892249  0.64702272  0.71726819    -0.77300
C399        C  0.01634471  0.62542403  0.62643120     0.85200
C400        C  0.12610503  0.51528044  0.62292661     0.84900
O401        O  0.10293100  0.60081238  0.71517730    -0.76300
C402        C  0.23544783  0.62399136  0.62381999     0.85700
O403        O  0.03511905  0.60119536  0.64754569    -0.76400
C404        C  0.12402740  0.62723744  0.51523981     0.85800
C405        C  0.12770928  0.73498466  0.62679637     0.86100
O406        O  0.10366073  0.71780318  0.60414853    -0.78800
N407        N  0.97454159  0.62555951  0.62782408    -0.01300
C408        C  0.95064329  0.60356582  0.60537114     0.01300
C409        C  0.91207992  0.61312563  0.61247615    -0.21600
C410        C  0.91250773  0.64224138  0.64055961    -0.21800
C411        C  0.95139656  0.64948093  0.64933884     0.01200
H412        H  0.88654225  0.60070444  0.59851097     0.15000
H413        H  0.88722441  0.65676437  0.65286766     0.15000
N414        N  0.12856602  0.77675926  0.62740900    -0.01300
C415        C  0.15143755  0.80016361  0.60511129     0.01300
C416        C  0.14396250  0.83893768  0.61406272    -0.21600
C417        C  0.11551614  0.83906015  0.64276055    -0.21800
C418        C  0.10652163  0.80035855  0.65038717     0.01200
H419        H  0.15749666  0.86439874  0.60106255     0.15000
H420        H  0.10271347  0.86462723  0.65636259     0.15000
N421        N  0.12354275  0.62838437  0.47352204    -0.01300
C422        C  0.14564671  0.65125081  0.44996624     0.01300
C423        C  0.13615011  0.64380597  0.41126492    -0.21600
C424        C  0.10731267  0.61539586  0.41148134    -0.21800
C425        C  0.10033195  0.60657056  0.45023212     0.01200
H426        H  0.14880636  0.65738631  0.38566937     0.15000
H427        H  0.09320061  0.60256916  0.38622625     0.15000
N428        N  0.12431658  0.62326424  0.77595744    -0.01300
C429        C  0.14658306  0.60067747  0.79931623     0.01300
C430        C  0.13923288  0.60918527  0.83809790    -0.21600
C431        C  0.11131208  0.63839503  0.83832838    -0.21800
C432        C  0.10276567  0.64662717  0.79960287     0.01200
H433        H  0.15288705  0.59599284  0.86335236     0.15000
H434        H  0.09891777  0.65228223  0.86394703     0.15000
N435        N  0.12550762  0.47349585  0.62300726    -0.01300
C436        C  0.10104113  0.45046455  0.60233600     0.01300
C437        C  0.10550901  0.41186409  0.61334114    -0.21600
C438        C  0.13411292  0.41145973  0.64194360    -0.21800
C439        C  0.14573966  0.44983782  0.64713632     0.01200
H440        H  0.08952414  0.38690684  0.60220104     0.15000
H441        H  0.14486475  0.38611446  0.65745317     0.15000
N442        N  0.27714335  0.62393386  0.62299853    -0.01300
C443        C  0.30059482  0.64579431  0.59977252     0.01300
C444        C  0.33932687  0.63651134  0.60723722    -0.21600
C445        C  0.33919783  0.60799413  0.63592860    -0.21800
C446        C  0.30046095  0.60102512  0.64500808     0.01200
H447        H  0.36489475  0.64904567  0.59342525     0.15000
H448        H  0.36451254  0.59402147  0.64868867     0.15000
O449        O  0.07046737  0.75080054  0.68355319    -0.76300
C450        C  0.07444728  0.67659611  0.78656778     0.84700
O451        O  0.93981458  0.69855111  0.69721538    -0.77400
O452        O  0.96372717  0.71947874  0.83537887    -0.78900
O453        O  0.03210181  0.83554572  0.79067557    -0.78700
O454        O  0.05816281  0.81285662  0.69869987    -0.77300
Zn455      Zn  0.03505802  0.71807229  0.71779494     1.55700
O456        O  0.03329008  0.78864207  0.83609950    -0.78700
Cd457      Cd  0.01423881  0.80751913  0.74011367     1.59700
Cd458      Cd  0.94579646  0.74138269  0.73986954     1.59600
O459        O  0.96544833  0.83675539  0.71937006    -0.78700
O460        O  0.00251044  0.75114071  0.75085697    -1.89200
Cd461      Cd  0.01359893  0.73916216  0.80712914     1.59900
O462        O  0.91807776  0.79179731  0.72070462    -0.78700
O463        O  0.05575344  0.69606796  0.81228300    -0.77300
C464        C  0.96508220  0.67892054  0.67801554     0.85200
C465        C  0.07684742  0.78722685  0.67908592     0.84900
O466        O  0.06917395  0.68227928  0.75015663    -0.76300
C467        C  0.03837521  0.82395380  0.82546450     0.85700
O468        O  0.00164401  0.68388758  0.68310951    -0.76400
C469        C  0.93007291  0.82642245  0.71404177     0.85800
C470        C  0.92837445  0.71523938  0.82447535     0.86100
O471        O  0.91705004  0.72266550  0.78980783    -0.78800
O472        O  0.90057416  0.96728659  0.85033577    -0.76300
C473        C  0.98660114  0.87648750  0.87472008     0.84700
O474        O  0.85257661  0.85419895  0.78204365    -0.77400
O475        O  0.89903322  0.78447426  0.89569645    -0.78900
O476        O  0.85562154  0.90115105  0.96655534    -0.78700
O477        O  0.85559304  0.96977822  0.89748019    -0.77300
Zn478      Zn  0.91091823  0.90971119  0.84070221     1.55700
O479        O  0.89938829  0.85278731  0.96614187    -0.78700
Cd480      Cd  0.84448863  0.91150606  0.90810847     1.59700
Cd481      Cd  0.84246215  0.84412183  0.84064300     1.59600
O482        O  0.78557904  0.90197962  0.89828183    -0.78700
O483        O  0.87749025  0.87746779  0.87372495    -1.89200
Cd484      Cd  0.91019358  0.84278185  0.90739212     1.59900
O485        O  0.78434913  0.85614432  0.85173693    -0.78700
O486        O  0.96890784  0.85305482  0.89757496    -0.77300
C487        C  0.87698511  0.87633761  0.76479411     0.85200
C488        C  0.87851368  0.98651964  0.87344988     0.84900
O489        O  0.96825745  0.89938068  0.85183001    -0.76300
C490        C  0.87759648  0.87696492  0.98427869     0.85700
O491        O  0.90065199  0.89825329  0.78351067    -0.76400
C492        C  0.76705919  0.87943904  0.87511395     0.85800
C493        C  0.87518454  0.76691144  0.87307881     0.86100
O494        O  0.85170105  0.78521005  0.85080823    -0.78800
N495        N  0.87770910  0.87690670  0.02605761    -0.01300
C496        C  0.85562020  0.85420232  0.04947823     0.01300
C497        C  0.86308521  0.86283229  0.08827144    -0.21600
C498        C  0.89109373  0.89207344  0.08834542    -0.21800
C499        C  0.89928887  0.90007013  0.04959753     0.01200
H500        H  0.84953269  0.84963802  0.11361422     0.15000
H501        H  0.90393422  0.90592560  0.11375447     0.15000
N502        N  0.87789623  0.87658553  0.72301838    -0.01300
C503        C  0.90201503  0.85556338  0.69991593     0.01300
C504        C  0.89650018  0.86559132  0.66117953    -0.21600
C505        C  0.86770699  0.89400658  0.66078890    -0.21800
C506        C  0.85687021  0.89995248  0.69928922     0.01200
H507        H  0.91173259  0.85374461  0.63608133     0.15000
H508        H  0.85617498  0.90877161  0.63534216     0.15000
N509        N  0.87479024  0.72513140  0.87286009    -0.01300
C510        C  0.85368908  0.70194805  0.89672641     0.01300
C511        C  0.86476470  0.66335946  0.89204284    -0.21600
C512        C  0.89399781  0.66313976  0.86403443    -0.21800
C513        C  0.89945764  0.70161650  0.85300227     0.01200
H514        H  0.85333440  0.63830639  0.90759890     0.15000
H515        H  0.90974436  0.63786114  0.85331695     0.15000
N516        N  0.72531127  0.88015693  0.87536373    -0.01300
C517        C  0.70168210  0.85693611  0.89666429     0.01300
C518        C  0.66307148  0.86326076  0.88658781    -0.21600
C519        C  0.66335285  0.89163186  0.85777078    -0.21800
C520        C  0.70212922  0.90126203  0.85156654     0.01200
H521        H  0.63765292  0.84863096  0.89846348     0.15000
H522        H  0.63818417  0.90353230  0.84281402     0.15000
N523        N  0.02843995  0.87680284  0.87469592    -0.01300
C524        C  0.05194326  0.85249358  0.85436712     0.01300
C525        C  0.09053215  0.85826102  0.86484723    -0.21600
C526        C  0.09047504  0.88726293  0.89307683    -0.21800
C527        C  0.05185428  0.89787292  0.89848280     0.01200
H528        H  0.11580128  0.84295323  0.85349125     0.15000
H529        H  0.11569341  0.89897692  0.90818379     0.15000
N530        N  0.87964430  0.02829298  0.87260763    -0.01300
C531        C  0.90203520  0.05168622  0.89516609     0.01300
C532        C  0.89517333  0.09046163  0.88624921    -0.21600
C533        C  0.86711391  0.09062166  0.85712913    -0.21800
C534        C  0.85818844  0.05193041  0.84953791     0.01200
H535        H  0.90887102  0.11574706  0.89948140     0.15000
H536        H  0.85449369  0.11606669  0.84329351     0.15000
O537        O  0.71247277  0.10783475  0.64277401    -0.76300
C538        C  0.62520580  0.12931057  0.73030282     0.84700
O539        O  0.60151119  0.03611453  0.59755573    -0.77400
O540        O  0.53247320  0.15070309  0.64543236    -0.78900
O541        O  0.64581582  0.22061035  0.59807971    -0.78700
O542        O  0.71594861  0.15336008  0.59781457    -0.77300
Zn543      Zn  0.65627640  0.09726435  0.65308377     1.55700
O544        O  0.60012083  0.22027341  0.64425717    -0.78700
Cd545      Cd  0.65723943  0.16269539  0.58769165     1.59700
Cd546      Cd  0.59055513  0.09471850  0.58816670     1.59600
O547        O  0.64642153  0.15142382  0.52976215    -0.78700
O548        O  0.62383351  0.12908822  0.62126666    -1.89200
Cd549      Cd  0.59045551  0.16227795  0.65540569     1.59900
O550        O  0.60039532  0.10557009  0.53021610    -0.78700
O551        O  0.60154552  0.15285010  0.71396142    -0.77300
C552        C  0.62548527  0.01994063  0.62087849     0.85200
C553        C  0.73275457  0.12983893  0.62114975     0.84900
O554        O  0.64652221  0.10732650  0.70957758    -0.76300
C555        C  0.62275628  0.23857893  0.62112742     0.85700
O556        O  0.64688800  0.04081235  0.64262800    -0.76400
C557        C  0.62335748  0.12831083  0.51185369     0.85800
C558        C  0.51440671  0.12726172  0.62283237     0.86100
O559        O  0.53261546  0.10466299  0.59951765    -0.78800
N560        N  0.62821718  0.97760972  0.62234884    -0.01300
C561        C  0.65159315  0.95402458  0.64494950     0.01300
C562        C  0.64401089  0.91517855  0.63612246    -0.21600
C563        C  0.61557136  0.91453725  0.60768776    -0.21800
C564        C  0.60649119  0.95293768  0.59984010     0.01200
H565        H  0.65767129  0.88981409  0.64911522     0.15000
H566        H  0.60278213  0.88883157  0.59433606     0.15000
N567        N  0.62357653  0.12749274  0.46981502    -0.01300
C568        C  0.64687091  0.14882840  0.44592792     0.01300
C569        C  0.64022359  0.13867259  0.40736067    -0.21600
C570        C  0.61167618  0.10995743  0.40769567    -0.21800
C571        C  0.60199558  0.10380033  0.44644417     0.01200
H572        H  0.65465786  0.15058215  0.38186008     0.15000
H573        H  0.59954473  0.09510196  0.38250893     0.15000
N574        N  0.62765524  0.12791607  0.77267279    -0.01300
C575        C  0.65105097  0.10565341  0.79655593     0.01300
C576        C  0.64315123  0.11464182  0.83531150    -0.21600
C577        C  0.61444777  0.14281439  0.83558893    -0.21800
C578        C  0.60558719  0.15035440  0.79707147     0.01200
H579        H  0.65681271  0.10198205  0.86084595     0.15000
H580        H  0.60143855  0.15629860  0.86112104     0.15000
N581        N  0.47240818  0.12547558  0.62443692    -0.01300
C582        C  0.44885513  0.14542723  0.64933089     0.01300
C583        C  0.41062857  0.13293859  0.64530816    -0.21600
C584        C  0.41075601  0.10436622  0.61659816    -0.21800
C585        C  0.44905856  0.10057888  0.60424320     0.01200
H586        H  0.38551472  0.14322035  0.66159108     0.15000
H587        H  0.38575949  0.08799717  0.60616738     0.15000
N588        N  0.77515127  0.12826020  0.62264302    -0.01300
C589        C  0.79950075  0.10554762  0.64504727     0.01300
C590        C  0.83809112  0.11386523  0.63576903    -0.21600
C591        C  0.83777314  0.14210632  0.60719246    -0.21800
C592        C  0.79908118  0.15033595  0.59983941     0.01200
H593        H  0.86389991  0.10067492  0.64838695     0.15000
H594        H  0.86300924  0.15518085  0.59328090     0.15000
N595        N  0.62236928  0.28061269  0.62115407    -0.01300
C596        C  0.59993172  0.30406875  0.64394816     0.01300
C597        C  0.60818551  0.34287100  0.63623392    -0.21600
C598        C  0.63680492  0.34310624  0.60754371    -0.21800
C599        C  0.64491113  0.30443411  0.59893006     0.01200
H600        H  0.59509420  0.36817337  0.65005564     0.15000
H601        H  0.65031225  0.36863094  0.59464604     0.15000
O602        O  0.68723445  0.06785109  0.74977391    -0.76300
C603        C  0.78893267  0.07562232  0.67514243     0.84700
O604        O  0.70005589  0.93904857  0.69347649    -0.77400
O605        O  0.83848221  0.96407937  0.71663076    -0.78900
O606        O  0.79404580  0.03256914  0.83310687    -0.78700
O607        O  0.70036433  0.05807183  0.81194159    -0.77300
Zn608      Zn  0.72169499  0.03372135  0.71727273     1.55700
O609        O  0.83939739  0.03328278  0.78585795    -0.78700
Cd610      Cd  0.74304053  0.01433768  0.80566876     1.59700
Cd611      Cd  0.74234796  0.94537094  0.73749953     1.59600
O612        O  0.72329112  0.96445477  0.83393654    -0.78700
O613        O  0.75440014  0.00183903  0.74921553    -1.89200
Cd614      Cd  0.81049581  0.01415772  0.73611411     1.59900
O615        O  0.72165923  0.91813739  0.78760337    -0.78700
O616        O  0.81592219  0.05714572  0.69295888    -0.77300
C617        C  0.68120827  0.96550384  0.67520034     0.85200
C618        C  0.68104639  0.07570893  0.78537951     0.84900
O619        O  0.75347124  0.06854998  0.68287041    -0.76300
C620        C  0.82891403  0.03850629  0.82125704     0.85700
O621        O  0.68757667  0.00117143  0.68267747    -0.76400
C622        C  0.71634821  0.92955996  0.82272211     0.85800
C623        C  0.82785041  0.92857647  0.71263773     0.86100
O624        O  0.79313037  0.91695574  0.71983427    -0.78800
O625        O  0.81765308  0.25230935  0.42969550    -0.76300
C626        C  0.71327112  0.32404092  0.42374218     0.84700
O627        O  0.80260589  0.30608952  0.55980103    -0.77400
O628        O  0.66342233  0.28398939  0.53526176    -0.78900
O629        O  0.71091593  0.16709837  0.46509398    -0.78700
O630        O  0.80343487  0.19031059  0.44281472    -0.77300
Zn631      Zn  0.78259654  0.28502478  0.46466724     1.55700
O632        O  0.66428349  0.21284071  0.46594277    -0.78700
Cd633      Cd  0.76065741  0.19583879  0.48551690     1.59700
Cd634      Cd  0.75937926  0.26400048  0.55383140     1.59600
O635        O  0.78080709  0.16799119  0.53556352    -0.78700
O636        O  0.74913432  0.25228291  0.49716445    -1.89200
Cd637      Cd  0.69251368  0.26301034  0.48589629     1.59900
O638        O  0.77877811  0.21397376  0.58218069    -0.78700
O639        O  0.68761704  0.30485045  0.44272857    -0.77300
C640        C  0.82226196  0.32512431  0.53453358     0.85200
C641        C  0.82283269  0.21586793  0.42390025     0.84900
O642        O  0.74973841  0.31926340  0.42965137    -0.76300
C643        C  0.67574596  0.17799188  0.45922404     0.85700
O644        O  0.81721956  0.31983242  0.49797613    -0.76400
C645        C  0.78594404  0.17916772  0.57079670     0.85800
C646        C  0.67429348  0.29095787  0.57025773     0.86100
O647        O  0.70926355  0.28497754  0.58175220    -0.78800
O648        O  0.39567181  0.89935029  0.28379820    -0.76300
C649        C  0.37379494  0.98550160  0.37549899     0.84700
O650        O  0.46572849  0.85232253  0.39590497    -0.77400
O651        O  0.35143773  0.89826514  0.46680573    -0.78900
O652        O  0.28129293  0.85304137  0.35132842    -0.78700
O653        O  0.35003133  0.85278131  0.28212172    -0.77300
Zn654      Zn  0.40639075  0.90972945  0.34097710     1.55700
O655        O  0.28182889  0.89879971  0.39797995    -0.78700
Cd656      Cd  0.33969850  0.84242392  0.34053203     1.59700
Cd657      Cd  0.40740046  0.84205764  0.40693036     1.59600
O658        O  0.35003406  0.78380711  0.35062275    -0.78700
O659        O  0.37389507  0.87638357  0.37373417    -1.89200
Cd660      Cd  0.34033694  0.90933936  0.40843927     1.59900
O661        O  0.39671127  0.78362792  0.39615544    -0.78700
O662        O  0.35072631  0.96796007  0.39882267    -0.77300
C663        C  0.48269432  0.87605925  0.37286129     0.85200
C664        C  0.37319036  0.87631604  0.26500351     0.84900
O665        O  0.39615897  0.96704207  0.35206468    -0.76300
C666        C  0.26367742  0.87598843  0.37477178     0.85700
O667        O  0.46371826  0.89922802  0.35079468    -0.76400
C668        C  0.37340263  0.76580783  0.37323857     0.85800
C669        C  0.37490723  0.87519033  0.48411033     0.86100
O670        O  0.39769963  0.85229165  0.46560225    -0.78800
N671        N  0.22196712  0.87607133  0.37525786    -0.01300
C672        C  0.19891336  0.85502705  0.39932936     0.01300
C673        C  0.16024163  0.86559395  0.39421135    -0.21600
C674        C  0.15993324  0.89441085  0.36578917    -0.21800
C675        C  0.19843177  0.90013865  0.35480716     0.01200
H676        H  0.13514690  0.85393317  0.40955015     0.15000
H677        H  0.13454596  0.90958201  0.35464222     0.15000
N678        N  0.52448098  0.87672100  0.37182024    -0.01300
C679        C  0.54783504  0.85417446  0.34904439     0.01300
C680        C  0.58664048  0.86265052  0.35679170    -0.21600
C681        C  0.58687468  0.89115615  0.38543514    -0.21800
C682        C  0.54820707  0.89919091  0.39427658     0.01200
H683        H  0.61204980  0.84943702  0.34331870     0.15000
H684        H  0.61250196  0.90435328  0.39849976     0.15000
N685        N  0.37600654  0.87518357  0.52585925    -0.01300
C686        C  0.35456893  0.85193304  0.54940151     0.01300
C687        C  0.36422264  0.85855130  0.58803592    -0.21600
C688        C  0.39288119  0.88710785  0.58794571    -0.21800
C689        C  0.39968629  0.89672510  0.54918047     0.01200
H690        H  0.35193210  0.84421988  0.61340409     0.15000
H691        H  0.40724090  0.89931391  0.61337306     0.15000
N692        N  0.37375906  0.72406239  0.37264647    -0.01300
C693        C  0.35180823  0.70056841  0.39547055     0.01300
C694        C  0.36023401  0.66185576  0.38769277    -0.21600
C695        C  0.38858342  0.66186044  0.35879841    -0.21800
C696        C  0.39642010  0.70065480  0.35011389     0.01200
H697        H  0.34735956  0.63648542  0.40149511     0.15000
H698        H  0.40204789  0.63634955  0.34574668     0.15000
N699        N  0.37402670  0.87679201  0.22324796    -0.01300
C700        C  0.35183900  0.89975192  0.20017449     0.01300
C701        C  0.36008896  0.89249167  0.16131497    -0.21600
C702        C  0.38850527  0.86372773  0.16076842    -0.21800
C703        C  0.39653197  0.85454763  0.19938820     0.01200
H704        H  0.34694663  0.90644264  0.13620466     0.15000
H705        H  0.40178548  0.85096912  0.13500880     0.15000
N706        N  0.37471421  0.02730972  0.37591255    -0.01300
C707        C  0.35135834  0.05097843  0.35478339     0.01300
C708        C  0.35865039  0.08962488  0.36393106    -0.21600
C709        C  0.38767887  0.08946802  0.39203672    -0.21800
C710        C  0.39691823  0.05065670  0.39899425     0.01200
H711        H  0.34446797  0.11505208  0.35164326     0.15000
H712        H  0.40041442  0.11488549  0.40597864     0.15000
O713        O  0.24993508  0.07007918  0.18390315    -0.76300
C714        C  0.17646919  0.96558333  0.17859511     0.84700
O715        O  0.19561869  0.05731978  0.31269369    -0.77400
O716        O  0.21944723  0.91708427  0.29117280    -0.78900
O717        O  0.33417181  0.96343047  0.22030633    -0.78700
O718        O  0.31172773  0.05670984  0.19896201    -0.77300
Zn719      Zn  0.21678654  0.03514566  0.21825844     1.55700
O720        O  0.28816632  0.91701760  0.22086214    -0.78700
Cd721      Cd  0.30573782  0.01306012  0.24064647     1.59700
Cd722      Cd  0.23735065  0.01365936  0.30787697     1.59600
O723        O  0.33399671  0.03128695  0.29103577    -0.78700
O724        O  0.24914963  0.00213822  0.25153214    -1.89200
Cd725      Cd  0.23824401  0.94545461  0.24078825     1.59900
O726        O  0.28729680  0.03245954  0.33680051    -0.78700
O727        O  0.19520391  0.94004562  0.19821831    -0.77300
C728        C  0.17687329  0.07655415  0.28693108     0.85200
C729        C  0.28646167  0.07591380  0.17948053     0.84900
O730        O  0.18223417  0.00206484  0.18355245    -0.76300
C731        C  0.32311551  0.92832041  0.21449527     0.85700
O732        O  0.18212134  0.07060120  0.25052854    -0.76400
C733        C  0.32259977  0.03751080  0.32596277     0.85800
C734        C  0.21209636  0.92876253  0.32583586     0.86100
O735        O  0.21658935  0.96423101  0.33642706    -0.78800
O736        O  0.14677978  0.21915319  0.14682318    -0.76300
C737        C  0.12551502  0.12887355  0.23444743     0.84700
O738        O  0.21857596  0.10393449  0.10470207    -0.77400
O739        O  0.10231358  0.03594176  0.14865621    -0.78900
O740        O  0.03446250  0.15012615  0.10075087    -0.78700
O741        O  0.10239962  0.21963901  0.09915076    -0.77300
Zn742      Zn  0.15836431  0.16225959  0.15820152     1.55700
O743        O  0.03392146  0.10557439  0.14835369    -0.78700
Cd744      Cd  0.09289565  0.16069649  0.09038843     1.59700
Cd745      Cd  0.16045474  0.09372778  0.09287251     1.59600
O746        O  0.10424894  0.14865526  0.03236161    -0.78700
O747        O  0.12646321  0.12831111  0.12555136    -1.89200
Cd748      Cd  0.09227593  0.09463586  0.15890595     1.59900
O749        O  0.15154620  0.10374917  0.03408633    -0.78700
O750        O  0.10265896  0.10502803  0.21730194    -0.77300
C751        C  0.23524657  0.12849104  0.12716543     0.85200
C752        C  0.12466703  0.23740049  0.12307946     0.84900
O753        O  0.14770707  0.15213967  0.21561830    -0.76300
C754        C  0.01631937  0.12794694  0.12446634     0.85700
O755        O  0.21598385  0.15241802  0.14832248    -0.76400
C756        C  0.12827187  0.12586028  0.01535013     0.85800
C757        C  0.12571004  0.01769007  0.12614606     0.86100
O758        O  0.14938483  0.03528596  0.10345137    -0.78800
N759        N  0.12882833  0.12469711  0.97364646    -0.01300
C760        C  0.10682433  0.10165724  0.95014862     0.01300
C761        C  0.11639095  0.10883715  0.91143066    -0.21600
C762        C  0.14518902  0.13729917  0.91159025    -0.21800
C763        C  0.15209394  0.14637589  0.95033939     0.01200
H764        H  0.10381477  0.09503036  0.88586508     0.15000
H765        H  0.15930755  0.14998267  0.88629726     0.15000
N766        N  0.12536390  0.97590188  0.12635721    -0.01300
C767        C  0.10285791  0.95244961  0.10368968     0.01300
C768        C  0.11064408  0.91368625  0.11224286    -0.21600
C769        C  0.13884986  0.91362881  0.14114275    -0.21800
C770        C  0.14740099  0.95235413  0.14928855     0.01200
H771        H  0.09733880  0.88819498  0.09898173     0.15000
H772        H  0.15168409  0.88809664  0.15463801     0.15000
N773        N  0.97461211  0.12779336  0.12381406    -0.01300
C774        C  0.95130699  0.10587518  0.10046249     0.01300
C775        C  0.91253182  0.11528001  0.10763109    -0.21600
C776        C  0.91247560  0.14400307  0.13623012    -0.21800
C777        C  0.95114315  0.15096477  0.14553139     0.01200
H778        H  0.88706966  0.10280184  0.09358683     0.15000
H779        H  0.88709703  0.15818543  0.14873451     0.15000
N780        N  0.12642368  0.12928405  0.27624499    -0.01300
C781        C  0.14843541  0.10650277  0.29990792     0.01300
C782        C  0.14015606  0.11520788  0.33863432    -0.21600
C783        C  0.11191228  0.14408308  0.33842160    -0.21800
C784        C  0.10407060  0.15189678  0.29964865     0.01200
H785        H  0.15299770  0.10189438  0.36424914     0.15000
H786        H  0.09844308  0.15759691  0.36368732     0.15000
N787        N  0.12506262  0.27919495  0.12331251    -0.01300
C788        C  0.15022506  0.30224875  0.10354434     0.01300
C789        C  0.14721902  0.34045543  0.11643921    -0.21600
C790        C  0.11882459  0.34064880  0.14526259    -0.21800
C791        C  0.10586724  0.30252920  0.14872279     0.01200
H792        H  0.16419138  0.36523554  0.10651882     0.15000
H793        H  0.10917889  0.36563752  0.16214794     0.15000
N794        N  0.27699805  0.12884671  0.12893889    -0.01300
C795        C  0.30087512  0.15131305  0.10697313     0.01300
C796        C  0.33946866  0.14300162  0.11530786    -0.21600
C797        C  0.33904366  0.11408178  0.14349369    -0.21800
C798        C  0.30013762  0.10574784  0.15121723     0.01200
H799        H  0.36505087  0.15612217  0.10210838     0.15000
H800        H  0.36436479  0.10042957  0.15659447     0.15000
O801        O  0.89969701  0.40339796  0.28436968    -0.76300
C802        C  0.87353309  0.48728447  0.37601194     0.84700
O803        O  0.96678438  0.35389377  0.39711713    -0.77400
O804        O  0.85116301  0.39993169  0.46561466    -0.78900
O805        O  0.78415469  0.35471258  0.34732774    -0.78700
O806        O  0.85535205  0.35572747  0.28045417    -0.77300
Zn807      Zn  0.90873871  0.41253260  0.34210191     1.55700
O808        O  0.78242240  0.39780629  0.39640649    -0.78700
Cd809      Cd  0.84295666  0.34468634  0.33831919     1.59700
Cd810      Cd  0.90827575  0.34385095  0.40704377     1.59600
O811        O  0.85289315  0.28605312  0.34854116    -0.78700
O812        O  0.87559967  0.37834151  0.37320694    -1.89200
Cd813      Cd  0.84047002  0.41033129  0.40719618     1.59900
O814        O  0.89724480  0.28550265  0.39634677    -0.78700
O815        O  0.84921978  0.46916754  0.39755513    -0.77300
C816        C  0.98420319  0.37828580  0.37512212     0.85200
C817        C  0.87840266  0.38014812  0.26447494     0.84900
O818        O  0.89776891  0.46943108  0.35403133    -0.76300
C819        C  0.76540025  0.37576564  0.37166525     0.85700
O820        O  0.96572086  0.40207833  0.35331746    -0.76400
C821        C  0.87485039  0.26787655  0.37239626     0.85800
C822        C  0.87439253  0.37703449  0.48342919     0.86100
O823        O  0.89762608  0.35415664  0.46547364    -0.78800
N824        N  0.88056238  0.38132254  0.22277411    -0.01300
C825        C  0.85918059  0.40472989  0.19940198     0.01300
C826        C  0.86798754  0.39745601  0.16066002    -0.21600
C827        C  0.89594135  0.36823351  0.16050624    -0.21800
C828        C  0.90301468  0.35869881  0.19922686     0.01200
H829        H  0.85511150  0.41131485  0.13534958     0.15000
H830        H  0.90923165  0.35512864  0.13492644     0.15000
N831        N  0.87456862  0.22612527  0.37208597    -0.01300
C832        C  0.85195012  0.20262276  0.39454376     0.01300
C833        C  0.86010937  0.16388900  0.38600053    -0.21600
C834        C  0.88876137  0.16394406  0.35745774    -0.21800
C835        C  0.89716933  0.20270728  0.34945621     0.01200
H836        H  0.84683016  0.13834210  0.39910415     0.15000
H837        H  0.90204139  0.13845723  0.34418187     0.15000
N838        N  0.02596471  0.37886569  0.37484180    -0.01300
C839        C  0.04955148  0.35609496  0.35259449     0.01300
C840        C  0.08826222  0.36470725  0.36072870    -0.21600
C841        C  0.08813871  0.39357898  0.38904264    -0.21800
C842        C  0.04935721  0.40170554  0.39727227     0.01200
H843        H  0.11383913  0.35145944  0.34761697     0.15000
H844        H  0.11358966  0.40698174  0.40224392     0.15000
N845        N  0.87420343  0.37680338  0.52516299    -0.01300
C846        C  0.85154378  0.35403649  0.54829013     0.01300
C847        C  0.85968010  0.36192598  0.58715965    -0.21600
C848        C  0.88825395  0.39052227  0.58757678    -0.21800
C849        C  0.89665002  0.39918048  0.54894866     0.01200
H850        H  0.84633150  0.34846634  0.61247995     0.15000
H851        H  0.90137195  0.40353190  0.61328521     0.15000
N852        N  0.87376663  0.52906623  0.37683347    -0.01300
C853        C  0.85047473  0.55257616  0.35546021     0.01300
C854        C  0.85789307  0.59128254  0.36426847    -0.21600
C855        C  0.88680795  0.59128528  0.39252170    -0.21800
C856        C  0.89600011  0.55251086  0.39976837     0.01200
H857        H  0.84395210  0.61664869  0.35159003     0.15000
H858        H  0.89960390  0.61679015  0.40625772     0.15000
N859        N  0.72366621  0.37450697  0.37126182    -0.01300
C860        C  0.70008815  0.35235513  0.39397328     0.01300
C861        C  0.66135170  0.35993211  0.38486997    -0.21600
C862        C  0.66154712  0.38778009  0.35562617    -0.21800
C863        C  0.70032730  0.39591582  0.34793227     0.01200
H864        H  0.63576244  0.34684250  0.39810520     0.15000
H865        H  0.63627925  0.40084351  0.34187756     0.15000
O866        O  0.93213556  0.25269876  0.31569121    -0.76300
C867        C  0.03647381  0.32660082  0.32356464     0.84700
O868        O  0.95005091  0.30892395  0.18699611    -0.77400
O869        O  0.08649223  0.28523907  0.21256508    -0.78900
O870        O  0.04028807  0.16867873  0.27937806    -0.78700
O871        O  0.94673119  0.19076400  0.30202357    -0.77300
Zn872      Zn  0.96782468  0.28608987  0.28223458     1.55700
O873        O  0.08590430  0.21552369  0.28068153    -0.78700
Cd874      Cd  0.99014723  0.19667451  0.25983327     1.59700
Cd875      Cd  0.99094711  0.26435251  0.19273078     1.59600
O876        O  0.97149037  0.16815778  0.20939267    -0.78700
O877        O  0.00108023  0.25338645  0.24944231    -1.89200
Cd878      Cd  0.05725351  0.26517192  0.26154602     1.59900
O879        O  0.97017365  0.21492567  0.16392546    -0.78700
O880        O  0.06223072  0.30765563  0.30443463    -0.77300
C881        C  0.93066212  0.32813985  0.21246663     0.85200
C882        C  0.92688863  0.21616295  0.32084519     0.84900
O883        O  0.00006453  0.32083663  0.31804646    -0.76300
C884        C  0.07513335  0.18026370  0.28582442     0.85700
O885        O  0.93460748  0.32174516  0.24893870    -0.76400
C886        C  0.96493352  0.17961859  0.17457094     0.85800
C887        C  0.07652751  0.28903583  0.17692270     0.86100
O888        O  0.04208263  0.28156308  0.16481230    -0.78800
loop_ 
_geom_bond_atom_site_label_1 
_geom_bond_atom_site_label_2 
_geom_bond_distance 
_geom_bond_site_symmetry_2 
_ccdc_geom_bond_type 
O1           C17   1.274   1_556  A
O1           Zn7   2.020       .  S
C2           O18   1.275       .  A
C2           O15   1.274       .  A
C2          C196   1.485       .  S
O3           C16   1.275       .  A
O3          Cd10   2.076       .  S
O4           C22   1.276       .  A
O4          Cd13   2.082       .  S
O5           C19   1.276       .  A
O5           Cd9   2.086       .  S
O6           C17   1.275       .  A
O6           Cd9   2.074       .  S
Zn7          O18   2.031       .  S
Zn7          O20   2.024       .  S
Zn7          O12   1.951       .  S
O8           C19   1.275       .  A
O8          Cd13   2.081   1_554  S
Cd9          O11   2.091       .  S
Cd9          O12   2.011   1_554  S
Cd10         O14   2.088   1_556  S
Cd10         O23   2.080       .  S
Cd10         O12   2.010       .  S
O11          C21   1.277       .  A
O12         Cd13   2.010       .  S
Cd13         O15   2.075       .  S
O14          C21   1.276       .  A
C16          O20   1.274       .  A
C16         C200   1.482       .  S
C17         C221   1.481       .  S
C19         C341   1.474       .  S
C21         C327   1.480       .  S
C22          O23   1.276       .  A
C22         C323   1.474       .  S
O24          C40   1.274       .  A
O24         Zn30   2.024       .  S
C25          O41   1.273       .  A
C25          O38   1.275       .  A
C25         C710   1.480       .  S
O26          C39   1.275       .  A
O26         Cd33   2.075       .  S
O27          C45   1.276       .  A
O27         Cd36   2.086       .  S
O28          C42   1.275       .  A
O28         Cd32   2.082   1_545  S
O29          C40   1.275       .  A
O29         Cd32   2.074       .  S
Zn30         O41   2.018   1_565  S
Zn30         O43   2.024       .  S
Zn30         O35   1.952   1_565  S
O31          C42   1.276       .  A
O31         Cd36   2.086       .  S
Cd32         O34   2.083       .  S
Cd32         O35   2.010   1_565  S
Cd33         O37   2.086       .  S
Cd33         O46   2.084   1_565  S
Cd33         O35   2.009   1_565  S
O34          C44   1.276       .  A
O35         Cd36   2.010       .  S
Cd36         O38   2.077       .  S
O37          C44   1.276       .  A
C39          O43   1.274       .  A
C39         C682   1.482       .  S
C40         C689   1.481       .  S
C42         C585   1.475       .  S
C44         C564   1.476       .  S
C45          O46   1.275       .  A
C45         C571   1.476       .  S
O47          C63   1.274       .  A
O47         Zn53   2.027       .  S
C48          O64   1.274       .  A
C48          O61   1.275       .  A
C48         C856   1.481       .  S
O49          C62   1.276       .  A
O49         Cd56   2.078       .  S
O50          C68   1.274       .  A
O50         Cd59   2.076   1_455  S
O51          C65   1.274       .  A
O51         Cd55   2.075       .  S
O52          C63   1.274       .  A
O52         Cd55   2.074       .  S
Zn53         O64   2.022       .  S
Zn53         O66   2.021       .  S
Zn53         O58   1.948       .  S
O54          C65   1.274       .  A
O54         Cd59   2.073       .  S
Cd55         O57   2.069   1_655  S
Cd55         O58   2.006       .  S
Cd56         O60   2.077       .  S
Cd56         O69   2.078       .  S
Cd56         O58   2.007   1_455  S
O57          C67   1.273       .  A
O58         Cd59   2.006       .  S
Cd59         O61   2.074       .  S
O60          C67   1.275       .  A
C62          O66   1.274   1_455  A
C62         C842   1.482       .  S
C63         C849   1.483       .  S
C65         C408   1.466       .  S
C67         C436   1.466       .  S
C68          O69   1.275       .  A
C68         C425   1.469       .  S
O70          C86   1.275       .  A
O70         Zn76   2.028   1_556  S
C71          O87   1.275   1_655  A
C71          O84   1.275       .  A
C71         C774   1.485       .  S
O72          C85   1.274       .  A
O72         Cd79   2.071       .  S
O73          C91   1.274       .  A
O73         Cd82   2.076   1_565  S
O74          C88   1.273       .  A
O74         Cd78   2.068   1_655  S
O75          C86   1.274       .  A
O75         Cd78   2.072       .  S
Zn76         O87   2.031       .  S
Zn76         O89   2.028       .  S
Zn76         O81   1.948   1_554  S
O77          C88   1.275       .  A
O77         Cd82   2.078   1_556  S
Cd78         O80   2.070   1_545  S
Cd78         O81   2.006       .  S
Cd79         O83   2.071   1_554  S
Cd79         O92   2.069   1_455  S
Cd79         O81   2.005   1_564  S
O80          C90   1.273       .  A
O81         Cd82   2.007   1_456  S
Cd82         O84   2.080       .  S
O83          C90   1.273       .  A
C85          O89   1.275   1_565  A
C85         C767   1.482       .  S
C86         C760   1.482       .  S
C88         C531   1.466       .  S
C90         C527   1.464       .  S
C91          O92   1.273       .  A
C91         C499   1.465       .  S
O93         C109   1.274       .  A
O93         Zn99   2.022       .  S
C94         O110   1.274       .  A
C94         O107   1.274       .  A
C94         C696   1.482       .  S
O95         C108   1.275       .  A
O95        Cd102   2.074       .  S
O96         C114   1.276       .  A
O96        Cd105   2.084       .  S
O97         C111   1.276       .  A
O97        Cd101   2.086       .  S
O98         C109   1.275       .  A
O98        Cd101   2.077       .  S
Zn99        O110   2.025       .  S
Zn99        O112   2.022       .  S
Zn99        O104   1.952       .  S
O100        C111   1.275       .  A
O100       Cd105   2.079       .  S
Cd101       O103   2.091       .  S
Cd101       O104   2.011       .  S
Cd102       O106   2.089       .  S
Cd102       O115   2.086       .  S
Cd102       O104   2.010       .  S
O103        C113   1.277       .  A
O104       Cd105   2.011       .  S
Cd105       O107   2.075       .  S
O106        C113   1.276       .  A
C108        O112   1.274       .  A
C108        C679   1.482       .  S
C109        C703   1.482       .  S
C111        C344   1.473       .  S
C113        C351   1.480       .  S
C114        O115   1.276       .  A
C114        C355   1.476       .  S
O116        C132   1.274       .  A
O116       Zn122   2.025       .  S
C117        O133   1.275       .  A
C117        O130   1.275       .  A
C117        C210   1.483       .  S
O118        C131   1.274       .  A
O118       Cd125   2.074       .  S
O119        C137   1.276       .  A
O119       Cd128   2.083       .  S
O120        C134   1.276       .  A
O120       Cd124   2.086       .  S
O121        C132   1.274       .  A
O121       Cd124   2.072       .  S
Zn122       O133   2.026       .  S
Zn122       O135   2.029       .  S
Zn122       O127   1.950       .  S
O123        C134   1.276       .  A
O123       Cd128   2.087       .  S
Cd124       O126   2.083       .  S
Cd124       O127   2.010       .  S
Cd125       O129   2.082       .  S
Cd125       O138   2.082       .  S
Cd125       O127   2.010       .  S
O126        C136   1.276       .  A
O127       Cd128   2.010       .  S
Cd128       O130   2.074       .  S
O129        C136   1.276       .  A
C131        O135   1.275       .  A
C131        C217   1.484       .  S
C132        C203   1.482       .  S
C134        C596   1.477       .  S
C136        C578   1.475       .  S
C137        O138   1.275       .  A
C137        C582   1.474       .  S
O139        C155   1.275       .  A
O139       Zn145   2.027       .  S
C140        O156   1.275       .  A
C140        O153   1.275       .  A
C140        C186   1.487       .  S
O141        C154   1.276       .  A
O141       Cd148   2.077       .  S
O142        C160   1.274       .  A
O142       Cd151   2.072       .  S
O143        C157   1.275       .  A
O143       Cd147   2.076       .  S
O144        C155   1.276       .  A
O144       Cd147   2.079       .  S
Zn145       O156   2.034       .  S
Zn145       O158   2.024       .  S
Zn145       O150   1.951       .  S
O146        C157   1.274       .  A
O146       Cd151   2.073       .  S
Cd147       O149   2.084       .  S
Cd147       O150   2.009       .  S
Cd148       O152   2.081       .  S
Cd148       O161   2.077       .  S
Cd148       O150   2.008       .  S
O149        C159   1.275       .  A
O150       Cd151   2.009       .  S
Cd151       O153   2.078       .  S
O152        C159   1.274       .  A
C154        O158   1.275       .  A
C154        C207   1.483       .  S
C155        C193   1.485       .  S
C157        C429   1.467       .  S
C159        C446   1.473       .  S
C160        O161   1.275       .  A
C160        C439   1.466       .  S
O162        C178   1.274       .  A
O162       Zn168   2.018       .  S
C163        O179   1.274       .  A
C163        O176   1.272       .  A
C163        N199   1.429       .  S
O164        C177   1.272       .  A
O164       Cd171   2.061       .  S
O165        C183   1.272       .  A
O165       Cd174   2.059       .  S
O166        C180   1.272       .  A
O166       Cd170   2.061       .  S
O167        C178   1.272       .  A
O167       Cd170   2.059       .  S
Zn168       O179   2.019       .  S
Zn168       O181   2.018       .  S
Zn168       O173   1.944       .  S
O169        C180   1.273       .  A
O169       Cd174   2.064       .  S
Cd170       O172   2.060       .  S
Cd170       O173   1.996       .  S
Cd171       O175   2.062       .  S
Cd171       O184   2.062       .  S
Cd171       O173   1.996       .  S
O172        C182   1.272       .  A
O173       Cd174   1.996       .  S
Cd174       O176   2.059       .  S
O175        C182   1.273       .  A
C177        O181   1.273       .  A
C177        N220   1.429   1_556  S
C178        N213   1.428       .  S
C180        N206   1.428       .  S
C182        N185   1.427       .  S
C183        O184   1.273       .  A
C183        N192   1.427       .  S
N185        C189   1.355       .  A
N185        C186   1.355       .  A
C186        C187   1.385       .  A
C187        C188   1.383       .  A
C187        H190   1.082       .  S
C188        C189   1.384       .  A
C188        H191   1.082       .  S
C189        C243   1.486       .  S
N192        C196   1.354       .  A
N192        C193   1.355       .  A
C193        C194   1.384       .  A
C194        C195   1.383       .  A
C194        H197   1.082       .  S
C195        C196   1.384       .  A
C195        H198   1.082       .  S
N199        C203   1.354       .  A
N199        C200   1.355       .  A
C200        C201   1.384       .  A
C201        C202   1.382       .  A
C201        H204   1.082       .  S
C202        C203   1.384       .  A
C202        H205   1.082       .  S
N206        C210   1.354       .  A
N206        C207   1.355       .  A
C207        C208   1.384       .  A
C208        C209   1.382       .  A
C208        H211   1.082       .  S
C209        C210   1.384       .  A
C209        H212   1.082       .  S
N213        C217   1.354       .  A
N213        C214   1.355       .  A
C214        C242   1.483       .  S
C214        C215   1.384       .  A
C215        C216   1.382       .  A
C215        H218   1.082       .  S
C216        C217   1.384       .  A
C216        H219   1.082       .  S
N220        C224   1.354       .  A
N220        C221   1.355       .  A
C221        C222   1.384       .  A
C222        C223   1.382       .  A
C222        H225   1.082       .  S
C223        C224   1.385       .  A
C223        H226   1.082       .  S
C224        C228   1.483       .  S
O227        C243   1.275       .  A
O227       Zn233   2.027       .  S
C228        O244   1.275   1_554  A
C228        O241   1.274       .  A
O229        C242   1.276       .  A
O229       Cd236   2.077       .  S
O230        C248   1.274       .  A
O230       Cd239   2.075       .  S
O231        C245   1.275       .  A
O231       Cd235   2.080   1_554  S
O232        C243   1.276       .  A
O232       Cd235   2.084       .  S
Zn233       O244   2.028       .  S
Zn233       O246   2.023       .  S
Zn233       O238   1.950   1_556  S
O234        C245   1.273       .  A
O234       Cd239   2.068       .  S
Cd235       O237   2.079       .  S
Cd235       O238   2.009   1_556  S
Cd236       O240   2.078       .  S
Cd236       O249   2.080   1_556  S
Cd236       O238   2.008   1_556  S
O237        C247   1.275       .  A
O238       Cd239   2.007       .  S
Cd239       O241   2.072       .  S
O240        C247   1.274       .  A
C242        O246   1.274       .  A
C245        C788   1.466       .  S
C247        C763   1.470       .  S
C248        O249   1.275       .  A
C248        C795   1.469       .  S
O250        C266   1.267       .  A
O250       Zn256   2.006       .  S
C251        O267   1.266       .  A
C251        O264   1.276       .  A
C251        C330   1.496       .  S
O252        C265   1.276       .  A
O252       Cd259   2.101       .  S
O253        C271   1.276       .  A
O253       Cd262   2.077       .  S
O254        C268   1.275       .  A
O254       Cd258   2.078       .  S
O255        C266   1.276       .  A
O255       Cd258   2.088       .  S
Zn256       O267   2.000       .  S
Zn256       O269   2.006       .  S
Zn256       O261   1.912       .  S
O257        C268   1.275       .  A
O257       Cd262   2.078       .  S
Cd258       O260   2.072       .  S
Cd258       O261   2.010       .  S
Cd259       O263   2.082       .  S
Cd259       O272   2.069       .  S
Cd259       O261   2.014       .  S
O260        C270   1.275       .  A
O261       Cd262   2.013       .  S
Cd262       O264   2.098       .  S
O263        C270   1.276       .  A
C265        O269   1.267       .  A
C265        C358   1.500       .  S
C266        C337   1.495       .  S
C268        C825   1.469       .  S
C270        C853   1.467       .  S
C271        O272   1.275       .  A
C271        C863   1.464       .  S
O273        C289   1.275       .  A
O273       Zn279   2.024       .  S
C274        O290   1.275       .  A
C274        O287   1.275       .  A
C274        C443   1.485       .  S
O275        C288   1.275       .  A
O275       Cd282   2.073       .  S
O276        C294   1.275       .  A
O276       Cd285   2.077       .  S
O277        C291   1.275       .  A
O277       Cd281   2.078       .  S
O278        C289   1.276       .  A
O278       Cd281   2.079       .  S
Zn279       O290   2.031       .  S
Zn279       O292   2.025       .  S
Zn279       O284   1.951       .  S
O280        C291   1.275       .  A
O280       Cd285   2.077       .  S
Cd281       O283   2.081       .  S
Cd281       O284   2.008       .  S
Cd282       O286   2.078       .  S
Cd282       O295   2.074       .  S
Cd282       O284   2.008       .  S
O283        C293   1.275       .  A
O284       Cd285   2.008       .  S
Cd285       O287   2.080       .  S
O286        C293   1.274       .  A
C288        O292   1.274       .  A
C288        C415   1.482       .  S
C289        C422   1.483       .  S
C291        C693   1.469       .  S
C293        C672   1.470       .  S
C294        O295   1.274       .  A
C294        C686   1.467       .  S
O296        C312   1.267       .  A
O296       Zn302   2.022       .  S
C297        O313   1.263       .  A
C297        O310   1.274       .  A
C297        N319   1.450   1_554  S
O298        C311   1.272       .  A
O298       Cd305   2.047       .  S
O299        C317   1.272       .  A
O299       Cd308   2.043       .  S
O300        C314   1.270       .  A
O300       Cd304   2.062       .  S
O301        C312   1.267       .  A
O301       Cd304   2.072       .  S
Zn302       O313   1.982       .  S
Zn302       O315   2.014       .  S
Zn302       O307   1.883       .  S
O303        C314   1.272       .  A
O303       Cd308   2.052       .  S
Cd304       O306   2.046       .  S
Cd304       O307   1.945       .  S
Cd305       O309   2.068       .  S
Cd305       O318   2.053       .  S
Cd305       O307   1.969       .  S
O306        C316   1.266       .  A
O307       Cd308   1.969       .  S
Cd308       O310   2.068       .  S
O309        C316   1.274       .  A
C311        O315   1.270       .  A
C311        N347   1.451       .  S
C312        N333   1.453       .  S
C314        N326   1.447       .  S
C316        N354   1.447       .  S
C317        O318   1.274       .  A
C317        N340   1.438       .  S
N319        C323   1.360       .  A
N319        C320   1.375       .  A
C320        C362   1.500       .  S
C320        C321   1.387       .  A
C321        C322   1.377       .  A
C321        H324   1.082       .  S
C322        C323   1.377       .  A
C322        H325   1.082       .  S
N326        C330   1.371       .  A
N326        C327   1.360       .  A
C327        C328   1.378       .  A
C328        C329   1.379       .  A
C328        H331   1.082       .  S
C329        C330   1.386       .  A
C329        H332   1.082       .  S
N333        C337   1.374       .  A
N333        C334   1.374       .  A
C334        C376   1.497       .  S
C334        C335   1.383       .  A
C335        C336   1.372       .  A
C335        H338   1.082       .  S
C336        C337   1.382       .  A
C336        H339   1.083       .  S
N340        C344   1.354       .  A
N340        C341   1.355       .  A
C341        C342   1.382       .  A
C342        C343   1.385       .  A
C342        H345   1.082       .  S
C343        C344   1.382       .  A
C343        H346   1.082       .  S
N347        C351   1.362       .  A
N347        C348   1.374       .  A
C348        C377   1.496       .  S
C348        C349   1.386       .  A
C349        C350   1.378       .  A
C349        H352   1.083       .  S
C350        C351   1.378       .  A
C350        H353   1.082       .  S
N354        C358   1.373       .  A
N354        C355   1.359       .  A
C355        C356   1.378       .  A
C356        C357   1.379       .  A
C356        H359   1.082       .  S
C357        C358   1.387       .  A
C357        H360   1.082       .  S
O361        C377   1.263       .  A
O361       Zn367   1.989       .  S
C362        O378   1.266       .  A
C362        O375   1.276       .  A
O363        C376   1.275       .  A
O363       Cd370   2.088       .  S
O364        C382   1.275       .  A
O364       Cd373   2.076       .  S
O365        C379   1.275       .  A
O365       Cd369   2.076   1_556  S
O366        C377   1.276       .  A
O366       Cd369   2.098       .  S
Zn367       O378   2.005   1_554  S
Zn367       O380   2.007       .  S
Zn367       O372   1.907   1_554  S
O368        C379   1.275       .  A
O368       Cd373   2.072       .  S
Cd369       O371   2.072       .  S
Cd369       O372   2.014   1_554  S
Cd370       O374   2.077       .  S
Cd370       O383   2.071   1_554  S
Cd370       O372   2.010   1_554  S
O371        C381   1.275       .  A
O372       Cd373   2.014       .  S
Cd373       O375   2.097       .  S
O374        C381   1.275       .  A
C376        O380   1.267       .  A
C379        C517   1.465       .  S
C381        C496   1.465       .  S
C382        O383   1.275       .  A
C382        C510   1.465       .  S
O384        C400   1.275       .  A
O384       Zn390   2.025       .  S
C385        O401   1.275       .  A
C385        O398   1.272       .  A
C385        N428   1.429       .  S
O386        C399   1.273       .  A
O386       Cd393   2.061       .  S
O387        C405   1.273       .  A
O387       Cd396   2.066       .  S
O388        C402   1.273       .  A
O388       Cd392   2.061       .  S
O389        C400   1.272       .  A
O389       Cd392   2.064       .  S
Zn390       O401   2.026       .  S
Zn390       O403   2.028       .  S
Zn390       O395   1.947       .  S
O391        C402   1.272       .  A
O391       Cd396   2.062       .  S
Cd392       O394   2.063       .  S
Cd392       O395   2.000       .  S
Cd393       O397   2.064       .  S
Cd393       O406   2.066       .  S
Cd393       O395   1.998       .  S
O394        C404   1.273       .  A
O395       Cd396   1.999       .  S
Cd396       O398   2.058       .  S
O397        C404   1.273       .  A
C399        O403   1.275       .  A
C399        N407   1.430   1_455  S
C400        N435   1.429       .  S
C402        N442   1.426       .  S
C404        N421   1.428       .  S
C405        O406   1.273       .  A
C405        N414   1.429       .  S
N407        C411   1.355       .  A
N407        C408   1.350       .  A
C408        C409   1.380       .  A
C409        C410   1.382       .  A
C409        H412   1.082       .  S
C410        C411   1.386       .  A
C410        H413   1.082       .  S
C411        C464   1.480       .  S
N414        C418   1.355       .  A
N414        C415   1.355       .  A
C415        C416   1.384       .  A
C416        C417   1.381       .  A
C416        H419   1.082       .  S
C417        C418   1.384       .  A
C417        H420   1.082       .  S
C418        C465   1.482       .  S
N421        C425   1.349       .  A
N421        C422   1.354       .  A
C422        C423   1.386       .  A
C423        C424   1.384       .  A
C423        H426   1.082       .  S
C424        C425   1.381       .  A
C424        H427   1.082       .  S
N428        C432   1.354       .  A
N428        C429   1.349       .  A
C429        C430   1.380       .  A
C430        C431   1.383       .  A
C430        H433   1.082       .  S
C431        C432   1.386       .  A
C431        H434   1.082       .  S
C432        C450   1.481       .  S
N435        C439   1.349       .  A
N435        C436   1.348       .  A
C436        C437   1.382       .  A
C437        C438   1.384       .  A
C437        H440   1.082       .  S
C438        C439   1.382       .  A
C438        H441   1.082       .  S
N442        C446   1.350       .  A
N442        C443   1.354       .  A
C443        C444   1.386       .  A
C444        C445   1.385       .  A
C444        H447   1.082       .  S
C445        C446   1.381       .  A
C445        H448   1.082       .  S
O449        C465   1.274       .  A
O449       Zn455   2.023       .  S
C450        O466   1.274       .  A
C450        O463   1.274       .  A
O451        C464   1.275       .  A
O451       Cd458   2.075       .  S
O452        C470   1.274       .  A
O452       Cd461   2.072   1_655  S
O453        C467   1.273       .  A
O453       Cd457   2.068       .  S
O454        C465   1.275       .  A
O454       Cd457   2.072       .  S
Zn455       O466   2.024       .  S
Zn455       O468   2.019       .  S
Zn455       O460   1.947       .  S
O456        C467   1.274       .  A
O456       Cd461   2.072       .  S
Cd457       O459   2.073   1_455  S
Cd457       O460   2.004       .  S
Cd458       O462   2.076       .  S
Cd458       O471   2.072       .  S
Cd458       O460   2.004   1_655  S
O459        C469   1.273       .  A
O460       Cd461   2.005       .  S
Cd461       O463   2.071       .  S
O462        C469   1.274       .  A
C464        O468   1.274   1_655  A
C467        C524   1.463       .  S
C469        C503   1.467       .  S
C470        O471   1.274       .  A
C470        C513   1.465       .  S
O472        C488   1.275       .  A
O472       Zn478   2.027       .  S
C473        O489   1.274       .  A
C473        O486   1.273       .  A
C473        N523   1.431   1_655  S
O474        C487   1.272       .  A
O474       Cd481   2.063       .  S
O475        C493   1.274       .  A
O475       Cd484   2.069       .  S
O476        C490   1.273       .  A
O476       Cd480   2.067       .  S
O477        C488   1.272       .  A
O477       Cd480   2.062       .  S
Zn478       O489   2.029       .  S
Zn478       O491   2.025       .  S
Zn478       O483   1.950       .  S
O479        C490   1.274       .  A
O479       Cd484   2.071       .  S
Cd480       O482   2.068       .  S
Cd480       O483   2.002       .  S
Cd481       O485   2.065       .  S
Cd481       O494   2.070       .  S
Cd481       O483   2.003       .  S
O482        C492   1.273       .  A
O483       Cd484   1.999       .  S
Cd484       O486   2.066       .  S
O485        C492   1.273       .  A
C487        O491   1.275       .  A
C487        N502   1.429       .  S
C488        N530   1.430   1_565  S
C490        N495   1.429   1_556  S
C492        N516   1.428       .  S
C493        O494   1.273       .  A
C493        N509   1.429       .  S
N495        C499   1.348       .  A
N495        C496   1.348       .  A
C496        C497   1.383       .  A
C497        C498   1.384       .  A
C497        H500   1.082       .  S
C498        C499   1.382       .  A
C498        H501   1.082       .  S
N502        C506   1.349       .  A
N502        C503   1.349       .  A
C503        C504   1.382       .  A
C504        C505   1.384       .  A
C504        H507   1.082       .  S
C505        C506   1.382       .  A
C505        H508   1.082       .  S
C506        C623   1.467       .  S
N509        C513   1.348       .  A
N509        C510   1.348       .  A
C510        C511   1.382       .  A
C511        C512   1.384       .  A
C511        H514   1.082       .  S
C512        C513   1.382       .  A
C512        H515   1.082       .  S
N516        C520   1.348       .  A
N516        C517   1.347       .  A
C517        C518   1.382       .  A
C518        C519   1.385       .  A
C518        H521   1.082       .  S
C519        C520   1.383       .  A
C519        H522   1.082       .  S
C520        C622   1.466       .  S
N523        C527   1.349       .  A
N523        C524   1.349       .  A
C524        C525   1.382       .  A
C525        C526   1.383       .  A
C525        H528   1.082       .  S
C526        C527   1.382       .  A
C526        H529   1.082       .  S
N530        C534   1.349       .  A
N530        C531   1.349       .  A
C531        C532   1.382       .  A
C532        C533   1.384       .  A
C532        H535   1.082       .  S
C533        C534   1.382       .  A
C533        H536   1.082       .  S
C534        C620   1.465       .  S
O537        C553   1.263       .  A
O537       Zn543   1.987       .  S
C538        O554   1.264       .  A
C538        O551   1.273       .  A
C538        N574   1.453       .  S
O539        C552   1.272       .  A
O539       Cd546   2.066       .  S
O540        C558   1.273       .  A
O540       Cd549   2.051       .  S
O541        C555   1.272       .  A
O541       Cd545   2.050       .  S
O542        C553   1.272       .  A
O542       Cd545   2.063       .  S
Zn543       O554   1.990       .  S
Zn543       O556   1.989       .  S
Zn543       O548   1.900       .  S
O544        C555   1.272       .  A
O544       Cd549   2.048       .  S
Cd545       O547   2.051       .  S
Cd545       O548   1.987       .  S
Cd546       O550   2.045       .  S
Cd546       O559   2.047       .  S
Cd546       O548   1.988       .  S
O547        C557   1.273       .  A
O548       Cd549   1.987       .  S
Cd549       O551   2.065       .  S
O550        C557   1.272       .  A
C552        O556   1.264       .  A
C552        N560   1.452   1_545  S
C553        N588   1.452       .  S
C555        N595   1.438       .  S
C557        N567   1.438       .  S
C558        O559   1.272       .  A
C558        N581   1.439       .  S
N560        C564   1.362       .  A
N560        C561   1.376       .  A
C561        C617   1.500       .  S
C561        C562   1.386       .  A
C562        C563   1.376       .  A
C562        H565   1.082       .  S
C563        C564   1.377       .  A
C563        H566   1.082       .  S
N567        C571   1.356       .  A
N567        C568   1.355       .  A
C568        C643   1.475       .  S
C568        C569   1.382       .  A
C569        C570   1.384       .  A
C569        H572   1.082       .  S
C570        C571   1.382       .  A
C570        H573   1.082       .  S
N574        C578   1.361       .  A
N574        C575   1.376       .  A
C575        C618   1.499       .  S
C575        C576   1.386       .  A
C576        C577   1.376       .  A
C576        H579   1.082       .  S
C577        C578   1.377       .  A
C577        H580   1.082       .  S
N581        C585   1.355       .  A
N581        C582   1.355       .  A
C582        C583   1.382       .  A
C583        C584   1.384       .  A
C583        H586   1.082       .  S
C584        C585   1.382       .  A
C584        H587   1.082       .  S
N588        C592   1.360       .  A
N588        C589   1.374       .  A
C589        C603   1.497       .  S
C589        C590   1.387       .  A
C590        C591   1.376       .  A
C590        H593   1.082       .  S
C591        C592   1.377       .  A
C591        H594   1.082       .  S
C592        C645   1.472       .  S
N595        C599   1.355       .  A
N595        C596   1.356       .  A
C596        C597   1.383       .  A
C597        C598   1.385       .  A
C597        H600   1.082       .  S
C598        C599   1.383       .  A
C598        H601   1.082       .  S
C599        C646   1.477       .  S
O602        C618   1.264       .  A
O602       Zn608   1.995       .  S
C603        O619   1.264       .  A
C603        O616   1.275       .  A
O604        C617   1.276       .  A
O604       Cd611   2.099       .  S
O605        C623   1.275       .  A
O605       Cd614   2.071   1_565  S
O606        C620   1.275       .  A
O606       Cd610   2.076       .  S
O607        C618   1.277       .  A
O607       Cd610   2.101       .  S
Zn608       O619   1.997       .  S
Zn608       O621   1.999       .  S
Zn608       O613   1.909       .  S
O609        C620   1.275       .  A
O609       Cd614   2.073       .  S
Cd610       O612   2.075   1_545  S
Cd610       O613   2.014       .  S
Cd611       O615   2.076       .  S
Cd611       O624   2.080       .  S
Cd611       O613   2.014   1_565  S
O612        C622   1.275       .  A
O613       Cd614   2.014       .  S
Cd614       O616   2.094       .  S
O615        C622   1.275       .  A
C617        O621   1.265   1_565  A
C623        O624   1.276       .  A
O625        C641   1.274       .  A
O625       Zn631   2.028       .  S
C626        O642   1.274       .  A
C626        O639   1.274       .  A
C626        C860   1.478       .  S
O627        C640   1.274       .  A
O627       Cd634   2.073       .  S
O628        C646   1.276       .  A
O628       Cd637   2.085       .  S
O629        C643   1.276       .  A
O629       Cd633   2.084       .  S
O630        C641   1.274       .  A
O630       Cd633   2.075       .  S
Zn631       O642   2.020       .  S
Zn631       O644   2.028       .  S
Zn631       O636   1.950       .  S
O632        C643   1.275       .  A
O632       Cd637   2.082       .  S
Cd633       O635   2.079       .  S
Cd633       O636   2.010       .  S
Cd634       O638   2.078       .  S
Cd634       O647   2.088       .  S
Cd634       O636   2.009       .  S
O635        C645   1.276       .  A
O636       Cd637   2.009       .  S
Cd637       O639   2.066       .  S
O638        C645   1.276       .  A
C640        O644   1.275       .  A
C640        C846   1.483       .  S
C641        C832   1.484       .  S
C646        O647   1.276       .  A
O648        C664   1.274       .  A
O648       Zn654   2.021       .  S
C649        O665   1.274       .  A
C649        O662   1.273       .  A
C649        N706   1.430   1_565  S
O650        C663   1.272       .  A
O650       Cd657   2.060       .  S
O651        C669   1.273       .  A
O651       Cd660   2.068       .  S
O652        C666   1.272       .  A
O652       Cd656   2.063       .  S
O653        C664   1.272       .  A
O653       Cd656   2.060       .  S
Zn654       O665   2.027       .  S
Zn654       O667   2.022       .  S
Zn654       O659   1.948       .  S
O655        C666   1.273       .  A
O655       Cd660   2.064       .  S
Cd656       O658   2.066       .  S
Cd656       O659   2.000       .  S
Cd657       O661   2.064       .  S
Cd657       O670   2.063       .  S
Cd657       O659   1.998       .  S
O658        C668   1.273       .  A
O659       Cd660   1.998       .  S
Cd660       O662   2.063       .  S
O661        C668   1.273       .  A
C663        O667   1.274       .  A
C663        N678   1.430       .  S
C664        N699   1.429       .  S
C666        N671   1.427       .  S
C668        N692   1.428       .  S
C669        O670   1.273       .  A
C669        N685   1.428       .  S
N671        C675   1.349       .  A
N671        C672   1.348       .  A
C672        C673   1.383       .  A
C673        C674   1.386       .  A
C673        H676   1.082       .  S
C674        C675   1.383       .  A
C674        H677   1.082       .  S
C675        C734   1.470       .  S
N678        C682   1.355       .  A
N678        C679   1.355       .  A
C679        C680   1.384       .  A
C680        C681   1.381       .  A
C680        H683   1.082       .  S
C681        C682   1.384       .  A
C681        H684   1.082       .  S
N685        C689   1.354       .  A
N685        C686   1.349       .  A
C686        C687   1.380       .  A
C687        C688   1.383       .  A
C687        H690   1.082       .  S
C688        C689   1.386       .  A
C688        H691   1.082       .  S
N692        C696   1.354       .  A
N692        C693   1.349       .  A
C693        C694   1.381       .  A
C694        C695   1.384       .  A
C694        H697   1.082       .  S
C695        C696   1.386       .  A
C695        H698   1.082       .  S
N699        C703   1.354       .  A
N699        C700   1.349       .  A
C700        C731   1.469       .  S
C700        C701   1.380       .  A
C701        C702   1.384       .  A
C701        H704   1.082       .  S
C702        C703   1.386       .  A
C702        H705   1.082       .  S
N706        C710   1.355       .  A
N706        C707   1.349       .  A
C707        C733   1.466       .  S
C707        C708   1.380       .  A
C708        C709   1.382       .  A
C708        H711   1.082       .  S
C709        C710   1.386       .  A
C709        H712   1.082       .  S
O713        C729   1.274       .  A
O713       Zn719   2.024       .  S
C714        O730   1.274   1_565  A
C714        O727   1.276       .  A
C714        C770   1.482       .  S
O715        C728   1.275       .  A
O715       Cd722   2.073       .  S
O716        C734   1.275       .  A
O716       Cd725   2.081       .  S
O717        C731   1.274       .  A
O717       Cd721   2.076   1_565  S
O718        C729   1.275       .  A
O718       Cd721   2.077       .  S
Zn719       O730   2.020       .  S
Zn719       O732   2.022       .  S
Zn719       O724   1.951       .  S
O720        C731   1.275       .  A
O720       Cd725   2.079       .  S
Cd721       O723   2.071       .  S
Cd721       O724   2.006       .  S
Cd722       O726   2.076       .  S
Cd722       O735   2.079   1_545  S
Cd722       O724   2.007       .  S
O723        C733   1.274       .  A
O724       Cd725   2.007   1_545  S
Cd725       O727   2.079       .  S
O726        C733   1.274       .  A
C728        O732   1.274       .  A
C728        C781   1.480       .  S
C729        C798   1.482       .  S
C734        O735   1.275       .  A
O736        C752   1.275       .  A
O736       Zn742   2.025       .  S
C737        O753   1.275       .  A
C737        O750   1.272       .  A
C737        N780   1.430       .  S
O738        C751   1.272       .  A
O738       Cd745   2.058       .  S
O739        C757   1.273       .  A
O739       Cd748   2.066       .  S
O740        C754   1.273       .  A
O740       Cd744   2.061       .  S
O741        C752   1.272       .  A
O741       Cd744   2.063       .  S
Zn742       O753   2.027       .  S
Zn742       O755   2.027       .  S
Zn742       O747   1.944       .  S
O743        C754   1.273       .  A
O743       Cd748   2.063       .  S
Cd744       O746   2.063       .  S
Cd744       O747   2.000       .  S
Cd745       O749   2.063       .  S
Cd745       O758   2.067       .  S
Cd745       O747   1.999       .  S
O746        C756   1.273       .  A
O747       Cd748   1.999       .  S
Cd748       O750   2.059       .  S
O749        C756   1.273       .  A
C751        O755   1.275       .  A
C751        N794   1.429       .  S
C752        N787   1.430       .  S
C754        N773   1.427   1_455  S
C756        N759   1.427   1_554  S
C757        O758   1.273       .  A
C757        N766   1.430   1_545  S
N759        C763   1.349       .  A
N759        C760   1.353       .  A
C760        C761   1.386       .  A
C761        C762   1.384       .  A
C761        H764   1.082       .  S
C762        C763   1.381       .  A
C762        H765   1.082       .  S
N766        C770   1.355       .  A
N766        C767   1.354       .  A
C767        C768   1.385       .  A
C768        C769   1.382       .  A
C768        H771   1.082       .  S
C769        C770   1.384       .  A
C769        H772   1.082       .  S
N773        C777   1.350       .  A
N773        C774   1.354       .  A
C774        C775   1.386       .  A
C775        C776   1.385       .  A
C775        H778   1.082       .  S
C776        C777   1.381       .  A
C776        H779   1.082       .  S
C777        C886   1.471       .  S
N780        C784   1.349       .  A
N780        C781   1.354       .  A
C781        C782   1.386       .  A
C782        C783   1.382       .  A
C782        H785   1.082       .  S
C783        C784   1.380       .  A
C783        H786   1.082       .  S
C784        C884   1.466       .  S
N787        C791   1.349       .  A
N787        C788   1.349       .  A
C788        C789   1.382       .  A
C789        C790   1.383       .  A
C789        H792   1.082       .  S
C790        C791   1.382       .  A
C790        H793   1.082       .  S
C791        C887   1.466       .  S
N794        C798   1.355       .  A
N794        C795   1.350       .  A
C795        C796   1.381       .  A
C796        C797   1.383       .  A
C796        H799   1.082       .  S
C797        C798   1.386       .  A
C797        H800   1.082       .  S
O801        C817   1.274       .  A
O801       Zn807   2.022       .  S
C802        O818   1.274       .  A
C802        O815   1.272       .  A
C802        N852   1.429       .  S
O803        C816   1.272       .  A
O803       Cd810   2.058       .  S
O804        C822   1.273       .  A
O804       Cd813   2.063       .  S
O805        C819   1.273       .  A
O805       Cd809   2.063       .  S
O806        C817   1.272       .  A
O806       Cd809   2.059       .  S
Zn807       O818   2.023       .  S
Zn807       O820   2.019       .  S
Zn807       O812   1.946       .  S
O808        C819   1.273       .  A
O808       Cd813   2.064       .  S
Cd809       O811   2.065       .  S
Cd809       O812   1.997       .  S
Cd810       O814   2.063       .  S
Cd810       O823   2.061       .  S
Cd810       O812   1.998       .  S
O811        C821   1.273       .  A
O812       Cd813   1.997       .  S
Cd813       O815   2.062       .  S
O814        C821   1.272       .  A
C816        O820   1.274       .  A
C816        N838   1.428   1_655  S
C817        N824   1.429       .  S
C819        N859   1.428       .  S
C821        N831   1.428       .  S
C822        O823   1.272       .  A
C822        N845   1.427       .  S
N824        C828   1.354       .  A
N824        C825   1.349       .  A
C825        C826   1.381       .  A
C826        C827   1.384       .  A
C826        H829   1.082       .  S
C827        C828   1.386       .  A
C827        H830   1.082       .  S
C828        C881   1.482       .  S
N831        C835   1.355       .  A
N831        C832   1.355       .  A
C832        C833   1.385       .  A
C833        C834   1.383       .  A
C833        H836   1.082       .  S
C834        C835   1.384       .  A
C834        H837   1.082       .  S
C835        C882   1.484       .  S
N838        C842   1.355       .  A
N838        C839   1.354       .  A
C839        C867   1.483       .  S
C839        C840   1.384       .  A
C840        C841   1.382       .  A
C840        H843   1.082       .  S
C841        C842   1.384       .  A
C841        H844   1.082       .  S
N845        C849   1.354       .  A
N845        C846   1.354       .  A
C846        C847   1.384       .  A
C847        C848   1.382       .  A
C847        H850   1.082       .  S
C848        C849   1.384       .  A
C848        H851   1.082       .  S
N852        C856   1.354       .  A
N852        C853   1.349       .  A
C853        C854   1.381       .  A
C854        C855   1.383       .  A
C854        H857   1.082       .  S
C855        C856   1.386       .  A
C855        H858   1.082       .  S
N859        C863   1.347       .  A
N859        C860   1.352       .  A
C860        C861   1.386       .  A
C861        C862   1.383       .  A
C861        H864   1.082       .  S
C862        C863   1.380       .  A
C862        H865   1.082       .  S
O866        C882   1.275       .  A
O866       Zn872   2.026       .  S
C867        O883   1.275       .  A
C867        O880   1.274       .  A
O868        C881   1.276       .  A
O868       Cd875   2.079       .  S
O869        C887   1.273       .  A
O869       Cd878   2.069       .  S
O870        C884   1.275       .  A
O870       Cd874   2.076   1_455  S
O871        C882   1.276       .  A
O871       Cd874   2.080       .  S
Zn872       O883   2.030   1_655  S
Zn872       O885   2.021       .  S
Zn872       O877   1.949   1_655  S
O873        C884   1.273       .  A
O873       Cd878   2.069       .  S
Cd874       O876   2.080       .  S
Cd874       O877   2.008   1_655  S
Cd875       O879   2.080       .  S
Cd875       O888   2.077   1_655  S
Cd875       O877   2.007   1_655  S
O876        C886   1.275       .  A
O877       Cd878   2.006       .  S
Cd878       O880   2.070       .  S
O879        C886   1.275       .  A
C881        O885   1.274       .  A
C887        O888   1.275       .  A
