geometry optimzed in LAMMPS
_audit_creation_date              2020-11-30 
_audit_creation_method            'lammps2cif' 
_symmetry_space_group_name_H-M    'P1' 
_symmetry_Int_Tables_number       1 
_symmetry_cell_setting            triclinic 
loop_ 
_symmetry_equiv_pos_as_xyz 
  x,y,z 
_cell_length_a                    44.14048048 
_cell_length_b                    44.26196265237738 
_cell_length_c                    39.823417199994026 
_cell_angle_alpha                 90.5057753204565 
_cell_angle_beta                  87.69471867014792 
_cell_angle_gamma                 89.64988276028286 
loop_ 
_atom_site_label 
_atom_site_type_symbol 
_atom_site_fract_x 
_atom_site_fract_y 
_atom_site_fract_z 
_atom_site_charge 
C1          C  0.87310486  0.32697915  0.96733971     0.03300
C2          C  0.89652889  0.34832341  0.96754439    -0.12900
C3          C  0.89011934  0.37935945  0.96965144     0.00800
C4          C  0.85978926  0.38902742  0.97141194    -0.11400
C5          C  0.83591637  0.36816547  0.97146459     0.03300
C6          C  0.84278858  0.33707636  0.96943341    -0.10800
H7          H  0.91991485  0.34071451  0.96621810     0.08900
H8          H  0.85474586  0.41297844  0.97290126     0.06400
H9          H  0.82460967  0.32075539  0.96952201     0.06300
C10         C  0.82779457  0.37463315  0.48449539     0.03300
C11         C  0.85020466  0.39708633  0.48361356    -0.12900
C12         C  0.88107258  0.38931325  0.48462063     0.00800
C13         C  0.88946703  0.35870466  0.48590300    -0.11400
C14         C  0.86744887  0.33596952  0.48655062     0.03300
C15         C  0.83671438  0.34417097  0.48615455    -0.10800
H16         H  0.84364984  0.42065566  0.48242665     0.08900
H17         H  0.91327184  0.35255418  0.48559471     0.06400
H18         H  0.81964354  0.32673333  0.48801995     0.06300
C19         C  0.59373241  0.83385949  0.98173555     0.03300
C20         C  0.56984148  0.85496059  0.98105880    -0.12900
C21         C  0.57555375  0.88614327  0.98136968     0.00800
C22         C  0.60563021  0.89617517  0.98245858    -0.11400
C23         C  0.62985597  0.87547602  0.98319218     0.03300
C24         C  0.62368513  0.84435238  0.98272690    -0.10800
H25         H  0.54675728  0.84709561  0.97936171     0.08900
H26         H  0.61019560  0.92019149  0.98271056     0.06400
H27         H  0.64218837  0.82826799  0.98402055     0.06300
C28         C  0.60497478  0.82146931  0.48195524     0.03300
C29         C  0.63552731  0.83017141  0.48260314    -0.12900
C30         C  0.64373259  0.86081940  0.48046311     0.00800
C31         C  0.62074129  0.88271660  0.47739504    -0.11400
C32         C  0.59006956  0.87444552  0.47701386     0.03300
C33         C  0.58246754  0.84376763  0.47930061    -0.10800
H34         H  0.65278617  0.81305611  0.48575644     0.08900
H35         H  0.62671288  0.90627155  0.47457960     0.06400
H36         H  0.55888526  0.83717867  0.47903620     0.06300
O37         O  0.92071997  0.94120034  0.96058086    -0.78300
C38         C  0.98600250  0.98083798  0.88830107     0.82700
O39         O  0.02123802  0.91512863  0.99642025    -0.79400
O40         O  0.04275171  0.02058445  0.96604390    -0.80900
O41         O  0.93921762  0.03816850  0.00601101    -0.80700
O42         O  0.90778862  0.96989170  0.00509691    -0.79300
Zn43       Zn  0.96570346  0.94685311  0.95181345     1.55700
O44         O  0.97245219  0.05069705  0.96493667    -0.80700
Cd45       Cd  0.94779965  0.99258419  0.01362536     1.59700
Cd46       Cd  0.01446028  0.96018228  0.00845107     1.59600
O47         O  0.95879571  0.98623727  0.06332035    -0.80700
O48         O  0.98114965  0.97748351  0.98202891    -1.91200
Cd49       Cd  0.99795579  0.01203897  0.95559557     1.52300
O50         O  0.00384330  0.96319024  0.05935680    -0.80700
O51         O  0.99668259  0.00274721  0.90496138    -0.79300
C52         C  0.00741739  0.89722860  0.97710406     0.83200
C53         C  0.90097570  0.95085073  0.98242597     0.82800
O54         O  0.97338421  0.95837934  0.90293480    -0.78300
C55         C  0.95044628  0.05741728  0.98542320     0.83700
O56         O  0.98587709  0.90640007  0.95929481    -0.78400
C57         C  0.98154178  0.97414519  0.07690473     0.83800
C58         C  0.06192842  0.00666911  0.98347125     0.84100
O59         O  0.05472263  0.98312405  0.00010540    -0.80800
O60         O  0.97144901  0.96546969  0.55919218    -0.78300
C61         C  0.90361031  0.96627331  0.48460975     0.82700
O62         O  0.02436340  0.92758538  0.45880599    -0.79400
O63         O  0.96150898  0.00365168  0.40613573    -0.80900
O64         O  0.98396343  0.06245719  0.50673304    -0.80700
O65         O  0.99661213  0.00864969  0.56331964    -0.79300
Zn66       Zn  0.96758562  0.95722700  0.50967461     1.55700
O67         O  0.94974468  0.05477637  0.46794084    -0.80700
Cd68       Cd  0.00361657  0.02039858  0.51332955     1.59700
Cd69       Cd  0.01794271  0.97352470  0.45099715     1.59600
O70         O  0.04983316  0.02486186  0.50274331    -0.80700
O71         O  0.98542659  0.98965096  0.48308082    -1.91200
Cd72       Cd  0.95288887  0.00909610  0.45715785     1.59900
O73         O  0.05887350  0.99562509  0.45751948    -0.80700
O74         O  0.91115156  0.98944435  0.46751903    -0.79300
C75         C  0.01037642  0.90920216  0.47836972     0.83200
C76         C  0.98321674  0.98611548  0.57687987     0.82800
O77         O  0.92299521  0.95175918  0.50115227    -0.78300
C78         C  0.96337550  0.07221483  0.48795424     0.83700
O79         O  0.98878562  0.91797317  0.49839342    -0.78400
C80         C  0.06777690  0.01449276  0.47942701     0.83800
C81         C  0.98272961  0.99110012  0.38828739     0.84100
O82         O  0.00558759  0.97886459  0.40151876    -0.80800
C83         C  0.10051499  0.63251446  0.97521347     0.03300
C84         C  0.13098020  0.62323625  0.97670905    -0.12900
C85         C  0.13897885  0.59252661  0.97425734     0.00800
C86         C  0.11615778  0.57093613  0.97095519    -0.11400
C87         C  0.08559493  0.57962816  0.96994237     0.03300
C88         C  0.07798943  0.61046865  0.97192696    -0.10800
H89         H  0.14858872  0.63991687  0.97935656     0.08900
H90         H  0.12229356  0.54723752  0.96893851     0.06400
H91         H  0.05447379  0.61730547  0.97069074     0.06300
C92         C  0.09390192  0.64053609  0.46627941     0.03300
C93         C  0.12405918  0.63097076  0.46928888    -0.12900
C94         C  0.13165459  0.60008609  0.46948492     0.00800
C95         C  0.10845962  0.57868598  0.46692557    -0.11400
C96         C  0.07807551  0.58779727  0.46446260     0.03300
C97         C  0.07104060  0.61877352  0.46393346    -0.10800
H98         H  0.14155763  0.64769054  0.47240127     0.08900
H99         H  0.11408880  0.55483362  0.46625785     0.06400
H100        H  0.04768903  0.62596458  0.46195013     0.06300
C101        C  0.32631422  0.10196017  0.96850849     0.03300
C102        C  0.34972994  0.08030417  0.96850843    -0.12900
C103        C  0.38015282  0.08910616  0.96982776     0.00800
C104        C  0.38705708  0.12000117  0.97138344    -0.11400
C105        C  0.36404343  0.14211514  0.97114384     0.03300
C106        C  0.33371101  0.13279485  0.96962960    -0.10800
H107        H  0.34433715  0.05652210  0.96662704     0.08900
H108        H  0.41043658  0.12675980  0.97357287     0.06400
H109        H  0.31575645  0.14954480  0.96934448     0.06300
C110        C  0.33776893  0.09028990  0.48790647     0.03300
C111        C  0.34703136  0.12059722  0.48554424    -0.12900
C112        C  0.37798708  0.12817754  0.48557961     0.00800
C113        C  0.39957836  0.10484212  0.48766057    -0.11400
C114        C  0.39083639  0.07444317  0.48931569     0.03300
C115        C  0.35986658  0.06735608  0.48946717    -0.10800
H116        H  0.33005179  0.13824550  0.48406059     0.08900
H117        H  0.42343232  0.11028747  0.48814621     0.06400
H118        H  0.35291004  0.04396686  0.49116087     0.06300
O119        O  0.46599566  0.47520093  0.91181550    -0.78300
C120        C  0.45994440  0.40416434  0.98652852     0.82700
O121        O  0.42581377  0.52316739  0.01456474    -0.79400
O122        O  0.50095150  0.45880073  0.06638550    -0.80900
O123        O  0.56168932  0.47777009  0.96596226    -0.80700
O124        O  0.51132658  0.49706494  0.90981731    -0.79300
Zn125      Zn  0.45517680  0.46912095  0.96124017     1.55700
O126        O  0.54877245  0.44118226  0.00172786    -0.80700
Cd127      Cd  0.52128458  0.50120365  0.96011927     1.59700
Cd128      Cd  0.47141023  0.51551198  0.02119292     1.59600
O129        O  0.52778108  0.54657509  0.97169134    -0.80700
O130        O  0.48753553  0.48384832  0.98894763    -1.91200
Cd131      Cd  0.50406790  0.44988397  0.01532513     1.59900
O132        O  0.49390835  0.55590708  0.01359899    -0.80700
O133        O  0.48117279  0.41060853  0.00603226    -0.79300
C134        C  0.40752027  0.51187934  0.99398079     0.83200
C135        C  0.48863803  0.48606800  0.89516616     0.82800
O136        O  0.44793744  0.42422457  0.96837014    -0.78300
C137        C  0.56824880  0.45418258  0.98243649     0.83700
O138        O  0.41602828  0.49157247  0.97264514    -0.78400
C139        C  0.51522760  0.56453966  0.99340323     0.83800
C140        C  0.48924911  0.48033656  0.08408126     0.84100
O141        O  0.47670076  0.50302924  0.07069111    -0.80800
O142        O  0.40411813  0.48252425  0.47213199    -0.78300
C143        C  0.47734978  0.47844819  0.39544947     0.82700
O144        O  0.47312392  0.40578331  0.50915413    -0.79400
O145        O  0.55016936  0.47735945  0.46894866    -0.80900
O146        O  0.47951263  0.55308588  0.51001888    -0.80700
O147        O  0.41193538  0.51835385  0.51022352    -0.79300
Zn148      Zn  0.44462298  0.46241012  0.46212347     1.55700
O149        O  0.51365001  0.54277109  0.46874140    -0.80700
Cd150      Cd  0.45771915  0.51236757  0.51862568     1.59700
Cd151      Cd  0.49369487  0.44713680  0.51796522     1.59600
O152        O  0.46200649  0.50189817  0.56872424    -0.80700
O153        O  0.47590203  0.47942691  0.48938978    -1.91200
Cd154      Cd  0.50882306  0.49693343  0.45970711     1.59900
O155        O  0.48733085  0.45814058  0.56878702    -0.80700
O156        O  0.49992046  0.49027686  0.40951300    -0.79300
C157        C  0.45160448  0.39868999  0.49017779     0.83200
C158        C  0.39434766  0.50406076  0.49113045     0.82800
O159        O  0.45516459  0.46737018  0.41264360    -0.78300
C160        C  0.50086827  0.56127887  0.48963264     0.83700
O161        O  0.43928496  0.41814007  0.47157363    -0.78400
C162        C  0.47428990  0.48029779  0.58437009     0.83800
C163        C  0.55872790  0.45646838  0.48831084     0.84100
O164        O  0.54003802  0.44243336  0.50773371    -0.80800
C165        C  0.48891137  0.48530393  0.85789124    -0.03000
C166        C  0.51615159  0.48933881  0.83898302    -0.05600
C167        C  0.51680756  0.48711476  0.80390581    -0.20700
C168        C  0.49020582  0.48142767  0.78685671     0.25000
C169        C  0.46284629  0.47762451  0.80569249    -0.18300
C170        C  0.46225222  0.47944325  0.84083671    -0.08200
C171        C  0.49204846  0.47848241  0.74960258    -0.18500
C172        C  0.46886785  0.48550966  0.73008414    -0.23300
C173        C  0.47110829  0.48372830  0.69278864     0.27100
C174        C  0.45383017  0.50384563  0.67430869    -0.20100
C175        C  0.45507992  0.50281742  0.63920454    -0.09700
C176        C  0.47324757  0.48120346  0.62168649    -0.10300
C177        C  0.49024926  0.46069395  0.64021152    -0.03200
C178        C  0.48927518  0.46199019  0.67541683    -0.18300
H179        H  0.53713630  0.49362670  0.85132639     0.10800
H180        H  0.53819502  0.48992410  0.79000487     0.10800
H181        H  0.44202998  0.47246430  0.79344874     0.10500
H182        H  0.44093084  0.47607626  0.85466848     0.11600
H183        H  0.51379553  0.47206621  0.73783435     0.11700
H184        H  0.44811993  0.49487191  0.74161086     0.13600
H185        H  0.43950023  0.52064081  0.68710049     0.10100
H186        H  0.44157185  0.51886986  0.62579520     0.12200
H187        H  0.50437610  0.44369616  0.62751920     0.08800
H188        H  0.50230563  0.44564564  0.68894849     0.11600
C189        C  0.49044739  0.47893419  0.12115033    -0.03000
C190        C  0.50969903  0.45806407  0.13622204    -0.05600
C191        C  0.51120865  0.45691310  0.17116337    -0.20700
C192        C  0.49309700  0.47612582  0.19181013     0.25000
C193        C  0.47386909  0.49710624  0.17682931    -0.18300
C194        C  0.47264100  0.49854485  0.14183629    -0.08200
C195        C  0.49559695  0.47447310  0.22877149    -0.18500
C196        C  0.47220455  0.48066208  0.25048661    -0.23300
C197        C  0.47454109  0.47891587  0.28747572     0.27100
C198        C  0.44848366  0.47233387  0.30729523    -0.20100
C199        C  0.44955538  0.47153893  0.34230063    -0.09700
C200        C  0.47664320  0.47791651  0.35828390    -0.10300
C201        C  0.50276207  0.48457699  0.33842093    -0.03200
C202        C  0.50176382  0.48500650  0.30336950    -0.18300
H203        H  0.52388559  0.44280528  0.12099931     0.10800
H204        H  0.52639669  0.44077357  0.18213271     0.10800
H205        H  0.46022182  0.51282048  0.19203169     0.10500
H206        H  0.45769828  0.51497158  0.13099276     0.11600
H207        H  0.51685935  0.46630587  0.23821376     0.11700
H208        H  0.45008513  0.48577715  0.24087397     0.13600
H209        H  0.42720895  0.46778173  0.29563414     0.10100
H210        H  0.42899241  0.46649401  0.35686890     0.12200
H211        H  0.52395284  0.48967798  0.34997154     0.08800
H212        H  0.52210072  0.49092923  0.28889100     0.11600
C213        C  0.44022643  0.36726321  0.48982337    -0.03000
C214        C  0.41161232  0.36097842  0.47721878    -0.05600
C215        C  0.40042540  0.33151864  0.47722380    -0.20700
C216        C  0.41779139  0.30756288  0.48914142     0.25000
C217        C  0.44643575  0.31376356  0.50184663    -0.18300
C218        C  0.45747114  0.34336130  0.50230276    -0.08200
C219        C  0.40489072  0.27663939  0.48896188    -0.18500
C220        C  0.42213276  0.25151998  0.48574620    -0.23300
C221        C  0.40934980  0.22055404  0.48473328     0.27100
C222        C  0.42601847  0.19771145  0.46767201    -0.20100
C223        C  0.41538469  0.16805693  0.46708160    -0.09700
C224        C  0.38806017  0.16029745  0.48424529    -0.10300
C225        C  0.37125953  0.18328043  0.50124149    -0.03200
C226        C  0.38173831  0.21308713  0.50144360    -0.18300
H227        H  0.39763899  0.37892555  0.46771120     0.10800
H228        H  0.37820205  0.32737914  0.46760599     0.10800
H229        H  0.46008556  0.29593991  0.51207352     0.10500
H230        H  0.47952666  0.34752021  0.51231656     0.11600
H231        H  0.38036691  0.27469194  0.48944179     0.11700
H232        H  0.44651462  0.25368354  0.48185722     0.13600
H233        H  0.44733638  0.20286179  0.45459850     0.10100
H234        H  0.42867457  0.15118967  0.45312063     0.12200
H235        H  0.35047416  0.17811195  0.51530946     0.08800
H236        H  0.36867522  0.22996232  0.51563147     0.11600
C237        C  0.37177971  0.17482903  0.97242996    -0.03000
C238        C  0.35286026  0.19567606  0.99022624    -0.05600
C239        C  0.36028816  0.22634203  0.99133526    -0.20700
C240        C  0.38704289  0.23675483  0.97531029     0.25000
C241        C  0.40584138  0.21607471  0.95723554    -0.18300
C242        C  0.39824045  0.18551760  0.95573507    -0.08200
C243        C  0.39453783  0.26933765  0.97721829    -0.18500
C244        C  0.42330660  0.27914570  0.97762636    -0.23300
C245        C  0.43139077  0.31149624  0.98039630     0.27100
C246        C  0.45809083  0.31918365  0.99621380    -0.20100
C247        C  0.46697600  0.34929760  0.99865287    -0.09700
C248        C  0.44962935  0.37242554  0.98469228    -0.10300
C249        C  0.42300457  0.36472182  0.96847543    -0.03200
C250        C  0.41387378  0.33453073  0.96646718    -0.18300
H251        H  0.33252103  0.18827736  0.00375924     0.10800
H252        H  0.34538336  0.24189904  0.00527782     0.10800
H253        H  0.42613546  0.22354236  0.94366589     0.10500
H254        H  0.41292002  0.17033884  0.94101663     0.11600
H255        H  0.37593939  0.28541931  0.98043850     0.11700
H256        H  0.44171081  0.26275487  0.97797748     0.13600
H257        H  0.47207950  0.30180434  0.00686975     0.10100
H258        H  0.48774880  0.35438923  0.01106394     0.12200
H259        H  0.40926851  0.38199973  0.95729877     0.08800
H260        H  0.39353988  0.32922016  0.95335849     0.11600
C261        C  0.16374058  0.59029371  0.47262649    -0.03000
C262        C  0.18747242  0.60659966  0.45684087    -0.05600
C263        C  0.21764829  0.59798588  0.46048954    -0.20700
C264        C  0.22485457  0.57258952  0.47946147     0.25000
C265        C  0.20121246  0.55609265  0.49517990    -0.18300
C266        C  0.17098888  0.56489777  0.49182887    -0.08200
C267        C  0.25726345  0.56464866  0.48318073    -0.18500
C268        C  0.26710681  0.53620829  0.48777961    -0.23300
C269        C  0.29976659  0.52843680  0.48941890     0.27100
C270        C  0.31004353  0.50037437  0.47679697    -0.20100
C271        C  0.34075821  0.49258036  0.47719771    -0.09700
C272        C  0.36179081  0.51245233  0.49095201    -0.10300
C273        C  0.35136018  0.54024855  0.50446242    -0.03200
C274        C  0.32066835  0.54823946  0.50357861    -0.18300
H275        H  0.18274359  0.62596617  0.44143409     0.10800
H276        H  0.23545714  0.61107946  0.44817966     0.10800
H277        H  0.20599494  0.53688302  0.51077613     0.10500
H278        H  0.15334444  0.55219863  0.50491516     0.11600
H279        H  0.27373884  0.58260477  0.47975777     0.11700
H280        H  0.25104882  0.51772205  0.48771986     0.13600
H281        H  0.29432800  0.48464566  0.46605090     0.10100
H282        H  0.34800797  0.47086876  0.46689180     0.12200
H283        H  0.36696629  0.55595627  0.51541395     0.08800
H284        H  0.31330529  0.56972905  0.51433102     0.11600
C285        C  0.37564334  0.52263882  0.99481150    -0.03000
C286        C  0.36473655  0.54285467  0.01997717    -0.05600
C287        C  0.33463543  0.55294514  0.02063778    -0.20700
C288        C  0.31482296  0.54331700  0.99606296     0.25000
C289        C  0.32567656  0.52277229  0.97110086    -0.18300
C290        C  0.35573668  0.51268368  0.97045631    -0.08200
C291        C  0.28292619  0.55449215  0.99799748    -0.18500
C292        C  0.26447677  0.55356857  0.97187606    -0.23300
C293        C  0.23239052  0.56387061  0.97379877     0.27100
C294        C  0.21255800  0.55190563  0.95054363    -0.20100
C295        C  0.18228162  0.56114981  0.95082734    -0.09700
C296        C  0.17119347  0.58285860  0.97421158    -0.10300
C297        C  0.19106034  0.59518266  0.99729702    -0.03200
C298        C  0.22139467  0.58578621  0.99714887    -0.18300
H299        H  0.37942074  0.55083779  0.03925685     0.10800
H300        H  0.32683970  0.56849753  0.04034460     0.10800
H301        H  0.31108278  0.51380751  0.95234924     0.10500
H302        H  0.36333404  0.49693150  0.95087601     0.11600
H303        H  0.27455020  0.56383811  0.02190748     0.11700
H304        H  0.27273093  0.54430813  0.94791692     0.13600
H305        H  0.22051476  0.53523045  0.93209863     0.10100
H306        H  0.16760722  0.55161846  0.93238820     0.12200
H307        H  0.18306395  0.61193032  0.01561907     0.08800
H308        H  0.23615449  0.59618241  0.01486663     0.11600
C309        C  0.30502474  0.08252583  0.48980751    -0.03000
C310        C  0.29382746  0.06250105  0.51443295    -0.05600
C311        C  0.26307346  0.05508163  0.51653101    -0.20700
C312        C  0.24287953  0.06699121  0.49367691     0.25000
C313        C  0.25396598  0.08727839  0.46913807    -0.18300
C314        C  0.28473168  0.09507795  0.46736202    -0.08200
C315        C  0.21039261  0.05826781  0.49682707    -0.18500
C316        C  0.19220632  0.05656869  0.47050352    -0.23300
C317        C  0.16033669  0.04578430  0.47361067     0.27100
C318        C  0.14779574  0.03106687  0.44611714    -0.20100
C319        C  0.11795887  0.02047618  0.44816239    -0.09700
C320        C  0.09972820  0.02494828  0.47758157    -0.10300
C321        C  0.11213941  0.04013408  0.50495477    -0.03200
C322        C  0.14212081  0.05035434  0.50305722    -0.18300
H323        H  0.30885513  0.05285158  0.53237666     0.10800
H324        H  0.25507443  0.03967099  0.53587442     0.10800
H325        H  0.23888617  0.09747690  0.45165052     0.10500
H326        H  0.29275717  0.11063351  0.44819308     0.11600
H327        H  0.20188323  0.05078958  0.52131577     0.11700
H328        H  0.20155383  0.06108536  0.44541969     0.13600
H329        H  0.16125588  0.02746502  0.42306515     0.10100
H330        H  0.10904274  0.00912308  0.42651376     0.12200
H331        H  0.09867441  0.04411313  0.52791895     0.08800
H332        H  0.15075803  0.06230160  0.52444284     0.11600
C333        C  0.08632625  0.67326912  0.46604763    -0.03000
C334        C  0.10493979  0.69360653  0.44800394    -0.05600
C335        C  0.09802116  0.72445932  0.44808218    -0.20700
C336        C  0.07228410  0.73571195  0.46600170     0.25000
C337        C  0.05377974  0.71534720  0.48436005    -0.18300
C338        C  0.06068012  0.68448804  0.48421656    -0.08200
C339        C  0.06626716  0.76883384  0.46579617    -0.18500
C340        C  0.03907931  0.78132827  0.47417905    -0.23300
C341        C  0.03320665  0.81440032  0.47518999     0.27100
C342        C  0.00889772  0.82524227  0.49569407    -0.20100
C343        C  0.00190224  0.85601389  0.49710262    -0.09700
C344        C  0.01886104  0.87674393  0.47765321    -0.10300
C345        C  0.04322294  0.86594645  0.45699303    -0.03200
C346        C  0.05034377  0.83507153  0.45572938    -0.18300
H347        H  0.12473461  0.68560913  0.43353703     0.10800
H348        H  0.11277610  0.73959491  0.43391972     0.10800
H349        H  0.03438043  0.72300155  0.49959351     0.10500
H350        H  0.04629982  0.66947107  0.49898427     0.11600
H351        H  0.08510137  0.78329555  0.45845592     0.11700
H352        H  0.02017355  0.76699240  0.48149673     0.13600
H353        H  0.99524980  0.80980836  0.51078578     0.10100
H354        H  0.98290479  0.86348214  0.51319635     0.12200
H355        H  0.05659085  0.88129615  0.44151859     0.08800
H356        H  0.06873681  0.82752577  0.43889042     0.11600
C357        C  0.09341089  0.01806030  0.98446075    -0.03000
C358        C  0.11405925  0.00506662  0.00617664    -0.05600
C359        C  0.14378147  0.01560545  0.00705106    -0.20700
C360        C  0.15374559  0.03914282  0.98605481     0.25000
C361        C  0.13298945  0.05247824  0.96458837    -0.18300
C362        C  0.10317364  0.04200018  0.96380792    -0.08200
C363        C  0.18570486  0.04927251  0.98801342    -0.18500
C364        C  0.20068600  0.06487972  0.96370469    -0.23300
C365        C  0.23293348  0.07403596  0.96573863     0.27100
C366        C  0.24342485  0.09855136  0.94651663    -0.20100
C367        C  0.27365050  0.10770609  0.94743052    -0.09700
C368        C  0.29416300  0.09232387  0.96740718    -0.10300
C369        C  0.28377034  0.06751967  0.98630104    -0.03200
C370        C  0.25357123  0.05837445  0.98539690    -0.18300
H371        H  0.10727022  0.98673315  0.02259969     0.10800
H372        H  0.15917194  0.00509012  0.02402996     0.10800
H373        H  0.13935099  0.07127663  0.94873311     0.10500
H374        H  0.08777267  0.05266880  0.94697662     0.11600
H375        H  0.19739111  0.04297329  0.01037350     0.11700
H376        H  0.18910980  0.07154436  0.94141700     0.13600
H377        H  0.22813059  0.11075538  0.93082140     0.10100
H378        H  0.28106644  0.12656718  0.93211535     0.12200
H379        H  0.29897222  0.05526754  0.00204149     0.08800
H380        H  0.24677330  0.03873062  0.99969669     0.11600
C381        C  0.01635476  0.86493657  0.97585572    -0.03000
C382        C  0.99715516  0.84311906  0.96237870    -0.05600
C383        C  0.00501621  0.81246562  0.96283647    -0.20700
C384        C  0.03243813  0.80306371  0.97615311     0.25000
C385        C  0.05172441  0.82490399  0.98948179    -0.18300
C386        C  0.04373651  0.85548074  0.98934655    -0.08200
C387        C  0.03978254  0.77031939  0.97693950    -0.18500
C388        C  0.06843881  0.75968797  0.97599040    -0.23300
C389        C  0.07597706  0.72701682  0.97623057     0.27100
C390        C  0.10304324  0.71705824  0.96003448    -0.20100
C391        C  0.11098412  0.68646568  0.95969732    -0.09700
C392        C  0.09227051  0.66516848  0.97616468    -0.10300
C393        C  0.06543147  0.67529979  0.99304877    -0.03200
C394        C  0.05731210  0.70588717  0.99302420    -0.18300
H395        H  0.97577854  0.84966758  0.95206716     0.10800
H396        H  0.98967400  0.79604113  0.95267887     0.10800
H397        H  0.07262920  0.81843364  0.00083588     0.10500
H398        H  0.05894226  0.87171718  0.00007228     0.11600
H399        H  0.02104663  0.75454350  0.97654076     0.11700
H400        H  0.08717161  0.77533316  0.97285533     0.13600
H401        H  0.11785950  0.73296044  0.94708966     0.10100
H402        H  0.13155980  0.67946001  0.94601076     0.12200
H403        H  0.05085006  0.65964262  0.00665020     0.08800
H404        H  0.03676202  0.71298325  0.00668385     0.11600
C405        C  0.98834342  0.98183609  0.85108814    -0.03000
C406        C  0.00380963  0.00562689  0.83487414    -0.05600
C407        C  0.00570764  0.00712430  0.79986550    -0.20700
C408        C  0.99197383  0.98511612  0.78014285     0.25000
C409        C  0.97695452  0.96091889  0.79626460    -0.18300
C410        C  0.97513930  0.95935402  0.83138530    -0.08200
C411        C  0.99444778  0.98812351  0.74299283    -0.18500
C412        C  0.97517730  0.97516684  0.72189218    -0.23300
C413        C  0.97767804  0.97873717  0.68482293     0.27100
C414        C  0.96552694  0.95624867  0.66441814    -0.20100
C415        C  0.96737788  0.95861847  0.62943752    -0.09700
C416        C  0.98120526  0.98375767  0.61402342    -0.10300
C417        C  0.99288208  0.00660134  0.63446834    -0.03200
C418        C  0.99107053  0.00419464  0.66948973    -0.18300
H419        H  0.01444503  0.02323495  0.84922928     0.10800
H420        H  0.01766536  0.02581850  0.78813192     0.10800
H421        H  0.96693564  0.94291952  0.78202263     0.10500
H422        H  0.96332321  0.94057376  0.84308765     0.11600
H423        H  0.01262349  0.00216815  0.73287471     0.11700
H424        H  0.95706909  0.96094364  0.73179044     0.13600
H425        H  0.95482189  0.93658384  0.67559035     0.10100
H426        H  0.95799368  0.94067529  0.61448078     0.12200
H427        H  0.00332966  0.02644346  0.62342712     0.08800
H428        H  0.99971680  0.02255894  0.68433399     0.11600
C429        C  0.98228563  0.97282698  0.11406362    -0.03000
C430        C  0.00757305  0.96049449  0.12953936    -0.05600
C431        C  0.00855131  0.95952306  0.16452521    -0.20700
C432        C  0.98447089  0.97106186  0.18492754     0.25000
C433        C  0.95887080  0.98292169  0.16951335    -0.18300
C434        C  0.95786630  0.98386590  0.13446206    -0.08200
C435        C  0.98694649  0.96988481  0.22201781    -0.18500
C436        C  0.97161217  0.98855071  0.24363969    -0.23300
C437        C  0.97512938  0.98837340  0.28063821     0.27100
C438        C  0.95207673  0.00133778  0.30144350    -0.20100
C439        C  0.95459600  0.00230138  0.33629778    -0.09700
C440        C  0.98040669  0.99046506  0.35122629    -0.10300
C441        C  0.00367970  0.97776456  0.33040539    -0.03200
C442        C  0.00116137  0.97681975  0.29550367    -0.18300
H443        H  0.02674584  0.95166631  0.11463399     0.10800
H444        H  0.02841974  0.95004721  0.17571410     0.10800
H445        H  0.93937883  0.99111452  0.18426668     0.10500
H446        H  0.93790734  0.99320374  0.12335920     0.11600
H447        H  0.00279937  0.95354369  0.23150736     0.11700
H448        H  0.95574752  0.00487042  0.23411265     0.13600
H449        H  0.93192678  0.01065302  0.29068852     0.10100
H450        H  0.93622309  0.01228213  0.35154080     0.12200
H451        H  0.02396548  0.96867170  0.34105070     0.08800
H452        H  0.01996307  0.96758062  0.28042330     0.11600
C453        C  0.41429099  0.05032831  0.49113783    -0.03000
C454        C  0.43878560  0.05389488  0.51224807    -0.05600
C455        C  0.46164219  0.03198205  0.51300661    -0.20700
C456        C  0.46079715  0.00608327  0.49249455     0.25000
C457        C  0.43590632  0.00211877  0.47184077    -0.18300
C458        C  0.41290308  0.02404164  0.47121819    -0.08200
C459        C  0.48600083  0.98369993  0.49419090    -0.18500
C460        C  0.49311028  0.96313879  0.46991400    -0.23300
C461        C  0.51860895  0.94112530  0.47192283     0.27100
C462        C  0.51767718  0.91426625  0.45301002    -0.20100
C463        C  0.54093130  0.89277651  0.45441398    -0.09700
C464        C  0.56587274  0.89778142  0.47457362    -0.10300
C465        C  0.56724046  0.92502187  0.49284577    -0.03200
C466        C  0.54394558  0.94650314  0.49149476    -0.18300
H467        H  0.44022404  0.07365997  0.52831865     0.10800
H468        H  0.48028574  0.03546597  0.52946171     0.10800
H469        H  0.43381934  0.98209190  0.45640140     0.10500
H470        H  0.39428907  0.02069905  0.45470369     0.11600
H471        H  0.49948789  0.98474270  0.51633669     0.11700
H472        H  0.47958465  0.96180591  0.44782558     0.13600
H473        H  0.49868637  0.90972559  0.43735503     0.10100
H474        H  0.53947188  0.87228151  0.43953334     0.12200
H475        H  0.58612068  0.92953776  0.50865081     0.08800
H476        H  0.54614439  0.96733427  0.50553588     0.11600
C477        C  0.59635823  0.78912237  0.48400228    -0.03000
C478        C  0.61256338  0.76708188  0.46497419    -0.05600
C479        C  0.60354437  0.73684448  0.46580104    -0.20700
C480        C  0.57811513  0.72794396  0.48555388     0.25000
C481        C  0.56240356  0.74993118  0.50535709    -0.18300
C482        C  0.57136430  0.78016243  0.50442408    -0.08200
C483        C  0.56911834  0.69556362  0.48501121    -0.18500
C484        C  0.54122795  0.68570325  0.49447859    -0.23300
C485        C  0.53190726  0.65347275  0.49300251     0.27100
C486        C  0.50666889  0.64432831  0.51286275    -0.20100
C487        C  0.49658117  0.61446996  0.51179189    -0.09700
C488        C  0.51135086  0.59305229  0.49051040    -0.10300
C489        C  0.53645034  0.60224322  0.47034103    -0.03200
C490        C  0.54659969  0.63209813  0.47149545    -0.18300
H491        H  0.63181861  0.77334317  0.44886473     0.10800
H492        H  0.61622119  0.72039958  0.45051166     0.10800
H493        H  0.54343838  0.74403499  0.52196635     0.10500
H494        H  0.55885770  0.79655811  0.51993637     0.11600
H495        H  0.58614869  0.67947248  0.47572402     0.11700
H496        H  0.52416810  0.70171284  0.50384192     0.13600
H497        H  0.49475236  0.66035189  0.52941858     0.10100
H498        H  0.47713770  0.60821067  0.52761249     0.12200
H499        H  0.54827239  0.58637016  0.45354160     0.08800
H500        H  0.56550115  0.63832185  0.45494047     0.11600
C501        C  0.67613717  0.87008761  0.48173832    -0.03000
C502        C  0.69951364  0.85200844  0.46699338    -0.05600
C503        C  0.72982947  0.86093708  0.46817189    -0.20700
C504        C  0.73746740  0.88835778  0.48351041     0.25000
C505        C  0.71423478  0.90628101  0.49864331    -0.18300
C506        C  0.68399236  0.89720489  0.49784971    -0.08200
C507        C  0.76984576  0.89729628  0.48418024    -0.18500
C508        C  0.77870916  0.92637139  0.48414549    -0.23300
C509        C  0.81097152  0.93573129  0.48428542     0.27100
C510        C  0.81926267  0.96338704  0.46976790    -0.20100
C511        C  0.84928832  0.97325470  0.46981966    -0.09700
C512        C  0.87167979  0.95587941  0.48493681    -0.10300
C513        C  0.86327448  0.92836612  0.49997773    -0.03200
C514        C  0.83325625  0.91835415  0.49961481    -0.18300
H515        H  0.69440352  0.83116191  0.45405129     0.10800
H516        H  0.74734586  0.84662498  0.45654085     0.10800
H517        H  0.71938877  0.92703565  0.51173623     0.10500
H518        H  0.66679299  0.91128956  0.51036825     0.11600
H519        H  0.78682501  0.87942453  0.48273933     0.11700
H520        H  0.76180009  0.94411617  0.48207958     0.13600
H521        H  0.80246486  0.97731366  0.45807374     0.10100
H522        H  0.85491370  0.99459462  0.45810914     0.12200
H523        H  0.87991723  0.91448454  0.51195956     0.08800
H524        H  0.82749017  0.89731650  0.51186899     0.11600
C525        C  0.55012065  0.90822282  0.98041191    -0.03000
C526        C  0.52333427  0.90382757  0.99996846    -0.05600
C527        C  0.49946572  0.92468475  0.99917777    -0.20700
C528        C  0.50182308  0.95047797  0.97898745     0.25000
C529        C  0.52849186  0.95462990  0.95896429    -0.18300
C530        C  0.55238854  0.93379545  0.95982997    -0.08200
C531        C  0.47569566  0.97192254  0.97899710    -0.18500
C532        C  0.47799079  0.00092874  0.96917338    -0.23300
C533        C  0.45204037  0.02258903  0.96941619     0.27100
C534        C  0.45484968  0.04871929  0.94982928    -0.20100
C535        C  0.43149822  0.07017823  0.94980865    -0.09700
C536        C  0.40477024  0.06606619  0.96953603    -0.10300
C537        C  0.40187827  0.03997212  0.98921346    -0.03200
C538        C  0.42528420  0.01851862  0.98932228    -0.18300
H539        H  0.52099400  0.88444131  0.01624880     0.10800
H540        H  0.47915455  0.92078863  0.01467556     0.10800
H541        H  0.53092922  0.97350957  0.94207109     0.10500
H542        H  0.57248781  0.93741996  0.94391586     0.11600
H543        H  0.45393224  0.96331500  0.98796150     0.11700
H544        H  0.49979379  0.00951392  0.96030304     0.13600
H545        H  0.47520477  0.05252644  0.93437713     0.10100
H546        H  0.43425692  0.08992543  0.93413818     0.12200
H547        H  0.38174665  0.03648084  0.00511997     0.08800
H548        H  0.42246341  0.99929022  0.00565770     0.11600
C549        C  0.52548431  0.59637100  0.99526005    -0.03000
C550        C  0.51332375  0.61599180  0.02034081    -0.05600
C551        C  0.52247232  0.64611773  0.02183485    -0.20700
C552        C  0.54385254  0.65755666  0.99825768     0.25000
C553        C  0.55645455  0.63777607  0.97343400    -0.18300
C554        C  0.54731351  0.60757096  0.97197645    -0.08200
C555        C  0.55209053  0.69009957  0.00085695    -0.18500
C556        C  0.56773224  0.70552834  0.97687050    -0.23300
C557        C  0.57441383  0.73836621  0.97956421     0.27100
C558        C  0.59897218  0.75009672  0.96045855    -0.20100
C559        C  0.60548533  0.78097397  0.96142955    -0.09700
C560        C  0.58732472  0.80091554  0.98129178    -0.10300
C561        C  0.56263426  0.78922555  0.00029489    -0.03200
C562        C  0.55616515  0.75835406  0.99939445    -0.18300
H563        H  0.49659606  0.60813212  0.03883408     0.10800
H564        H  0.51249344  0.66066746  0.04137054     0.10800
H565        H  0.57351359  0.64516472  0.95518165     0.10500
H566        H  0.55730172  0.59301243  0.95247448     0.11600
H567        H  0.54437795  0.70190060  0.02364825     0.11700
H568        H  0.57627759  0.69403081  0.95427948     0.13600
H569        H  0.61317388  0.73529415  0.94466215     0.10100
H570        H  0.62438611  0.78933909  0.94610310     0.12200
H571        H  0.54829123  0.80398702  0.01596060     0.08800
H572        H  0.53644762  0.75049998  0.01366496     0.11600
C573        C  0.66156208  0.88640415  0.98449209    -0.03000
C574        C  0.66872808  0.91088768  0.00535244    -0.05600
C575        C  0.69850649  0.92133192  0.00632907    -0.20700
C576        C  0.72188793  0.90754572  0.98662032     0.25000
C577        C  0.71462625  0.88316842  0.96544321    -0.18300
C578        C  0.68483977  0.87266901  0.96457149    -0.08200
C579        C  0.75316044  0.91980566  0.98856732    -0.18500
C580        C  0.77838029  0.90518947  0.97691743    -0.23300
C581        C  0.80939809  0.91780903  0.97887137     0.27100
C582        C  0.83184902  0.90791384  0.95531072    -0.20100
C583        C  0.86145380  0.91875179  0.95638227    -0.09700
C584        C  0.86943246  0.93956463  0.98134556    -0.10300
C585        C  0.84703154  0.94924844  0.00524514    -0.03200
C586        C  0.81733327  0.93846556  0.00408051    -0.18300
H587        H  0.65133766  0.92177886  0.02123385     0.10800
H588        H  0.70332477  0.94018885  0.02275835     0.10800
H589        H  0.73151951  0.87235894  0.94897012     0.10500
H590        H  0.67988744  0.85413814  0.94776139     0.11600
H591        H  0.75532890  0.94185958  0.00031656     0.11700
H592        H  0.77662781  0.88333003  0.96473833     0.13600
H593        H  0.82640639  0.89183828  0.93581948     0.10100
H594        H  0.87811691  0.91071742  0.93763521     0.12200
H595        H  0.85246611  0.96504377  0.02499579     0.08800
H596        H  0.80092095  0.94589879  0.02334986     0.11600
C597        C  0.90462830  0.41306563  0.48470510    -0.03000
C598        C  0.92881021  0.41091341  0.50644669    -0.05600
C599        C  0.95106500  0.43316927  0.50667651    -0.20700
C600        C  0.94987248  0.45790985  0.48497795     0.25000
C601        C  0.92546627  0.46029640  0.46342884    -0.18300
C602        C  0.90310012  0.43805187  0.46330592    -0.08200
C603        C  0.97414559  0.48090799  0.48636423    -0.18500
C604        C  0.98163830  0.49964205  0.46090775    -0.23300
C605        C  0.00666616  0.52187755  0.46232230     0.27100
C606        C  0.00641004  0.54695066  0.44098991    -0.20100
C607        C  0.02956615  0.56835541  0.44153786    -0.09700
C608        C  0.05365785  0.56494068  0.46325068    -0.10300
C609        C  0.05419400  0.53957850  0.48416886    -0.03200
C610        C  0.03108748  0.51821160  0.48363045    -0.18300
H611        H  0.93030937  0.39216849  0.52361297     0.10800
H612        H  0.96942475  0.43094360  0.52375880     0.10800
H613        H  0.92319135  0.47943659  0.44702279     0.10500
H614        H  0.88473554  0.44025460  0.44624618     0.11600
H615        H  0.98665918  0.48177644  0.50922623     0.11700
H616        H  0.96902868  0.49898666  0.43810082     0.13600
H617        H  0.98810605  0.55010355  0.42401310     0.10100
H618        H  0.02877919  0.58742703  0.42474326     0.12200
H619        H  0.07238351  0.53638966  0.50127219     0.08800
H620        H  0.03284437  0.49871306  0.49960053     0.11600
C621        C  0.95498882  0.10467314  0.48941014    -0.03000
C622        C  0.96830709  0.12435723  0.51238842    -0.05600
C623        C  0.96003898  0.15489627  0.51391627    -0.20700
C624        C  0.93813123  0.16635287  0.49278278     0.25000
C625        C  0.92529571  0.14682248  0.46926309    -0.18300
C626        C  0.93354994  0.11632470  0.46771732    -0.08200
C627        C  0.92986945  0.19888001  0.49525707    -0.18500
C628        C  0.90272370  0.20968565  0.48652820    -0.23300
C629        C  0.89419991  0.24219868  0.48764340     0.27100
C630        C  0.87024694  0.25182359  0.46815331    -0.20100
C631        C  0.86155877  0.28218528  0.46785460    -0.09700
C632        C  0.87648524  0.30363887  0.48733204    -0.10300
C633        C  0.90009714  0.29397637  0.50739265    -0.03200
C634        C  0.90883642  0.26356606  0.50765934    -0.18300
H635        H  0.98503800  0.11616600  0.52932148     0.10800
H636        H  0.97053066  0.16956001  0.53195035     0.10800
H637        H  0.90924599  0.15501067  0.45159818     0.10500
H638        H  0.92317304  0.10189948  0.44938529     0.11600
H639        H  0.94670241  0.21405983  0.50489341     0.11700
H640        H  0.88595926  0.19416497  0.47732577     0.13600
H641        H  0.85848086  0.23583752  0.45265643     0.10100
H642        H  0.84346902  0.28895698  0.45189078     0.12200
H643        H  0.91156042  0.30988977  0.52323832     0.08800
H644        H  0.92667638  0.25699679  0.52396859     0.11600
C645        C  0.59140788  0.44890274  0.48864981    -0.03000
C646        C  0.61306416  0.46981560  0.47679164    -0.05600
C647        C  0.64399570  0.46339855  0.47810545    -0.20700
C648        C  0.65397000  0.43571014  0.49056326     0.25000
C649        C  0.63236786  0.41467993  0.50243599    -0.18300
C650        C  0.60136307  0.42130005  0.50161081    -0.08200
C651        C  0.68703173  0.42985383  0.49142447    -0.18500
C652        C  0.69918453  0.40202250  0.48793023    -0.23300
C653        C  0.73234833  0.39628172  0.48661835     0.27100
C654        C  0.74369317  0.37106909  0.46855684    -0.20100
C655        C  0.77469644  0.36452574  0.46716494    -0.09700
C656        C  0.79505234  0.38275439  0.48440841    -0.10300
C657        C  0.78366716  0.40808375  0.50250182    -0.03200
C658        C  0.75264103  0.41480567  0.50360061    -0.18300
H659        H  0.60611309  0.49141539  0.46699350     0.10800
H660        H  0.66020960  0.48002224  0.46905847     0.10800
H661        H  0.63933913  0.39341189  0.51298270     0.10500
H662        H  0.58519145  0.40483235  0.51109139     0.11600
H663        H  0.70184668  0.44931213  0.49237762     0.11700
H664        H  0.68447697  0.38293476  0.48350481     0.13600
H665        H  0.72851492  0.35648089  0.45526517     0.10100
H666        H  0.78272317  0.34514343  0.45252450     0.12200
H667        H  0.79859216  0.42223126  0.51664161     0.08800
H668        H  0.74456263  0.43396803  0.51853991     0.11600
C669        C  0.91505501  0.40168395  0.97063195    -0.03000
C670        C  0.94072289  0.39591751  0.98939143    -0.05600
C671        C  0.96376460  0.41726422  0.99115639    -0.20700
C672        C  0.96179313  0.44476304  0.97412286     0.25000
C673        C  0.93609409  0.45062699  0.95536444    -0.18300
C674        C  0.91307170  0.42923320  0.95352803    -0.08200
C675        C  0.98631957  0.46714558  0.97790118    -0.18500
C676        C  0.99247090  0.48924144  0.95565322    -0.23300
C677        C  0.01671663  0.51192492  0.95988622     0.27100
C678        C  0.01518032  0.53914010  0.94219691    -0.20100
C679        C  0.03740025  0.56119544  0.94551810    -0.09700
C680        C  0.06176560  0.55641446  0.96653034    -0.10300
C681        C  0.06350430  0.52902907  0.98394128    -0.03200
C682        C  0.04139800  0.50693810  0.98050518    -0.18300
H683        H  0.94270363  0.37517654  0.00337209     0.10800
H684        H  0.98316320  0.41233773  0.00605809     0.10800
H685        H  0.93323608  0.47188164  0.94266633     0.10500
H686        H  0.89370231  0.43427570  0.93865833     0.11600
H687        H  0.99973024  0.46496959  0.99996488     0.11700
H688        H  0.97899287  0.49132611  0.93360563     0.13600
H689        H  0.99662768  0.54341937  0.92584777     0.10100
H690        H  0.03572935  0.58180861  0.93125134     0.12200
H691        H  0.08191218  0.52471020  0.00045275     0.08800
H692        H  0.04414627  0.48595200  0.99373024     0.11600
C693        C  0.93739213  0.08833476  0.98479339    -0.03000
C694        C  0.91617156  0.09829301  0.00980565    -0.05600
C695        C  0.90374716  0.12742546  0.00872427    -0.20700
C696        C  0.91225406  0.14725216  0.98271517     0.25000
C697        C  0.93302984  0.13699675  0.95730003    -0.18300
C698        C  0.94559004  0.10801610  0.95851471    -0.08200
C699        C  0.89857931  0.17810755  0.98260333    -0.18500
C700        C  0.91157487  0.20147826  0.96610937    -0.23300
C701        C  0.89928497  0.23290350  0.96577219     0.27100
C702        C  0.91397879  0.25372725  0.94440648    -0.20100
C703        C  0.90482933  0.28393971  0.94417962    -0.09700
C704        C  0.88076666  0.29425043  0.96550087    -0.10300
C705        C  0.86537398  0.27336814  0.98624754    -0.03200
C706        C  0.87452869  0.24300495  0.98648223    -0.18300
H707        H  0.90923472  0.08362835  0.03029599     0.10800
H708        H  0.88758136  0.13458373  0.02843742     0.10800
H709        H  0.93933821  0.15090886  0.93601190     0.10500
H710        H  0.96145144  0.10088354  0.93850113     0.11600
H711        H  0.87768857  0.18147326  0.99739549     0.11700
H712        H  0.93301409  0.19781798  0.95239026     0.13600
H713        H  0.93294895  0.24667953  0.92801105     0.10100
H714        H  0.91682094  0.29935306  0.92746329     0.12200
H715        H  0.84694125  0.28072615  0.00320263     0.08800
H716        H  0.86258001  0.22803261  0.00359668     0.11600
C717        C  0.59911522  0.44106667  0.97880054    -0.03000
C718        C  0.60416021  0.41064258  0.98690666    -0.05600
C719        C  0.63315094  0.39793051  0.98319866    -0.20700
C720        C  0.65781381  0.41549277  0.97206814     0.25000
C721        C  0.65278791  0.44586551  0.96357778    -0.18300
C722        C  0.62366520  0.45847788  0.96677685    -0.08200
C723        C  0.68838936  0.40140251  0.96934831    -0.18500
C724        C  0.71375879  0.41702134  0.97491895    -0.23300
C725        C  0.74437633  0.40300046  0.97452993     0.27100
C726        C  0.76650712  0.41626055  0.99404348    -0.20100
C727        C  0.79586262  0.40437742  0.99381117    -0.09700
C728        C  0.80400059  0.37924515  0.97345897    -0.10300
C729        C  0.78175897  0.36579969  0.95401786    -0.03200
C730        C  0.75221684  0.37754269  0.95452887    -0.18300
H731        H  0.58560993  0.39653674  0.99582202     0.10800
H732        H  0.63642306  0.37442379  0.98958474     0.10800
H733        H  0.67121412  0.45979375  0.95403708     0.10500
H734        H  0.62040177  0.48190639  0.96010087     0.11600
H735        H  0.68974620  0.37712534  0.96533491     0.11700
H736        H  0.71189729  0.44065775  0.98234728     0.13600
H737        H  0.76101610  0.43584769  0.00968472     0.10100
H738        H  0.81223326  0.41496235  0.00959033     0.12200
H739        H  0.78741111  0.34677047  0.93762840     0.08800
H740        H  0.73590056  0.36721252  0.93851124     0.11600
loop_ 
_geom_bond_atom_site_label_1 
_geom_bond_atom_site_label_2 
_geom_bond_distance 
_geom_bond_site_symmetry_2 
_ccdc_geom_bond_type 
C1            C2   1.405       .  A
C1            C6   1.407       .  A
C1          C704   1.486       .  S
C2            C3   1.402       .  A
C2            H7   1.083       .  S
C3            C4   1.402       .  A
C3          C669   1.485       .  S
C4            C5   1.405       .  A
C4            H8   1.083       .  S
C5            C6   1.408       .  A
C5          C728   1.488       .  S
C6            H9   1.083       .  S
C10          C11   1.406       .  A
C10          C15   1.405       .  A
C10         C656   1.487       .  S
C11          C12   1.405       .  A
C11          H16   1.083       .  S
C12          C13   1.404       .  A
C12         C597   1.483       .  S
C13          C14   1.403       .  A
C13          H17   1.083       .  S
C14          C15   1.403       .  A
C14         C632   1.484       .  S
C15          H18   1.083       .  S
C19          C20   1.406       .  A
C19          C24   1.406       .  A
C19         C560   1.487       .  S
C20          C21   1.405       .  A
C20          H25   1.083       .  S
C21          C22   1.405       .  A
C21         C525   1.486       .  S
C22          C23   1.405       .  A
C22          H26   1.083       .  S
C23          C24   1.406       .  A
C23         C573   1.486       .  S
C24          H27   1.083       .  S
C28          C29   1.406       .  A
C28          C33   1.404       .  A
C28         C477   1.486       .  S
C29          C30   1.409       .  A
C29          H34   1.083       .  S
C30          C31   1.409       .  A
C30         C501   1.493       .  S
C31          C32   1.405       .  A
C31          H35   1.083       .  S
C32          C33   1.404       .  A
C32         C464   1.488       .  S
C33          H36   1.083       .  S
O37          C53   1.275       .  A
O37         Zn43   2.020       .  S
C38         C405   1.482       .  S
C38          O54   1.276       .  A
C38          O51   1.274   1_565  A
O39          C52   1.275       .  A
O39         Cd46   2.064   1_556  S
O40          C58   1.275       .  A
O40         Cd49   2.073   1_455  S
O41          C55   1.276   1_554  A
O41         Cd45   2.078   1_545  S
O42          C53   1.276   1_554  A
O42         Cd45   2.075       .  S
Zn43         O54   2.032       .  S
Zn43         O56   2.025       .  S
Zn43         O48   1.949       .  S
O44          C55   1.275       .  A
O44         Cd49   2.065       .  S
Cd45         O47   2.078       .  S
Cd45         O48   2.005   1_554  S
Cd46         O50   2.065       .  S
Cd46         O59   2.069       .  S
Cd46         O48   1.995   1_454  S
O47          C57   1.276       .  A
O48         Cd49   1.994   1_565  S
Cd49         O51   2.057       .  S
O50          C57   1.275   1_455  A
C52         C381   1.480       .  S
C52          O56   1.275   1_455  A
C53         C584   1.484       .  S
C55         C693   1.482       .  S
C57         C429   1.483       .  S
C58         C357   1.483       .  S
C58          O59   1.275   1_546  A
O60          C76   1.275       .  A
O60         Zn66   2.016       .  S
C61         C512   1.485       .  S
C61          O77   1.275       .  A
C61          O74   1.274       .  A
O62          C75   1.276       .  A
O62         Cd69   2.079       .  S
O63          C81   1.274   1_545  A
O63         Cd72   2.064       .  S
O64          C78   1.276       .  A
O64         Cd68   2.072   1_655  S
O65          C76   1.276   1_545  A
O65         Cd68   2.074   1_655  S
Zn66         O77   2.026       .  S
Zn66         O79   2.007       .  S
Zn66         O71   1.943       .  S
O67          C78   1.275       .  A
O67         Cd72   2.066       .  S
Cd68         O70   2.077       .  S
Cd68         O71   2.003   1_445  S
Cd69         O73   2.084       .  S
Cd69         O82   2.081       .  S
Cd69         O71   2.006   1_455  S
O70          C80   1.276       .  A
O71         Cd72   1.997   1_565  S
Cd72         O74   2.070   1_545  S
O73          C80   1.277   1_565  A
C75         C344   1.482       .  S
C75          O79   1.274   1_455  A
C76         C416   1.483       .  S
C78         C621   1.481       .  S
C80         C320   1.486       .  S
C81         C440   1.484       .  S
C81          O82   1.277   1_655  A
C83          C84   1.407       .  A
C83          C88   1.406       .  A
C83         C392   1.488       .  S
C84          C85   1.404       .  A
C84          H89   1.083       .  S
C85          C86   1.402       .  A
C85         C296   1.482       .  S
C86          C87   1.403       .  A
C86          H90   1.083       .  S
C87          C88   1.405       .  A
C87         C680   1.484       .  S
C88          H91   1.083       .  S
C92          C93   1.404       .  A
C92          C97   1.405       .  A
C92         C333   1.485       .  S
C93          C94   1.406       .  A
C93          H98   1.083       .  S
C94          C95   1.405       .  A
C94         C261   1.489       .  S
C95          C96   1.406       .  A
C95          H99   1.083       .  S
C96          C97   1.404       .  A
C96         C608   1.485       .  S
C97         H100   1.083       .  S
C101        C102   1.405       .  A
C101        C106   1.406       .  A
C101        C368   1.487       .  S
C102        C103   1.403       .  A
C102        H107   1.083       .  S
C103        C104   1.404       .  A
C103        C536   1.485       .  S
C104        C105   1.407       .  A
C104        H108   1.083       .  S
C105        C106   1.407       .  A
C105        C237   1.491       .  S
C106        H109   1.082       .  S
C110        C111   1.408       .  A
C110        C115   1.407       .  A
C110        C309   1.487       .  S
C111        C112   1.409       .  A
C111        H116   1.083       .  S
C112        C113   1.406       .  A
C112        C224   1.493       .  S
C113        C114   1.403       .  A
C113        H117   1.082       .  S
C114        C115   1.404       .  A
C114        C453   1.487       .  S
C115        H118   1.084       .  S
O119        C135   1.276       .  A
O119       Zn125   2.027       .  S
C120        C248   1.482       .  S
C120        O136   1.276       .  A
C120        O133   1.273   1_556  A
O121        C134   1.275   1_554  A
O121       Cd128   2.067       .  S
O122        C140   1.275       .  A
O122       Cd131   2.067       .  S
O123        C137   1.276       .  A
O123       Cd127   2.080       .  S
O124        C135   1.276       .  A
O124       Cd127   2.075       .  S
Zn125       O136   2.035       .  S
Zn125       O138   2.022       .  S
Zn125       O130   1.951       .  S
O126        C137   1.273   1_554  A
O126       Cd131   2.058       .  S
Cd127       O129   2.081       .  S
Cd127       O130   2.005       .  S
Cd128       O132   2.069       .  S
Cd128       O141   2.074       .  S
Cd128       O130   2.001   1_554  S
O129        C139   1.277       .  A
O130       Cd131   1.993   1_556  S
Cd131       O133   2.054       .  S
O132        C139   1.276   1_554  A
C134        C285   1.482       .  S
C134        O138   1.276       .  A
C135        C165   1.484       .  S
C137        C717   1.479       .  S
C139        C549   1.485       .  S
C140        C189   1.481       .  S
C140        O141   1.275       .  A
O142        C158   1.274       .  A
O142       Zn148   2.016       .  S
C143        C200   1.482       .  S
C143        O159   1.275       .  A
C143        O156   1.275       .  A
O144        C157   1.276       .  A
O144       Cd151   2.081       .  S
O145        C163   1.274       .  A
O145       Cd154   2.063       .  S
O146        C160   1.276       .  A
O146       Cd150   2.073       .  S
O147        C158   1.275       .  A
O147       Cd150   2.077       .  S
Zn148       O159   2.021       .  S
Zn148       O161   2.012       .  S
Zn148       O153   1.942       .  S
O149        C160   1.275       .  A
O149       Cd154   2.071       .  S
Cd150       O152   2.068       .  S
Cd150       O153   2.002       .  S
Cd151       O155   2.085       .  S
Cd151       O164   2.078       .  S
Cd151       O153   2.010       .  S
O152        C162   1.276       .  A
O153       Cd154   2.000       .  S
Cd154       O156   2.071       .  S
O155        C162   1.277       .  A
C157        C213   1.482       .  S
C157        O161   1.274       .  A
C158        C272   1.482       .  S
C160        C488   1.484       .  S
C162        C176   1.485       .  S
C163        C645   1.479       .  S
C163        O164   1.276       .  A
C165        C166   1.406       .  A
C165        C170   1.406       .  A
C166        C167   1.399       .  A
C166        H179   1.083       .  S
C167        C168   1.403       .  A
C167        H180   1.083       .  S
C168        C169   1.408       .  A
C168        C171   1.487       .  S
C169        C170   1.400       .  A
C169        H181   1.082       .  S
C170        H182   1.083       .  S
C171        C172   1.346       .  D
C171        H183   1.086       .  S
C172        C173   1.486       .  S
C172        H184   1.086       .  S
C173        C174   1.402       .  A
C173        C178   1.408       .  A
C174        C175   1.397       .  A
C174        H185   1.083       .  S
C175        C176   1.407       .  A
C175        H186   1.083       .  S
C176        C177   1.407       .  A
C177        C178   1.402       .  A
C177        H187   1.083       .  S
C178        H188   1.082       .  S
C189        C190   1.406       .  A
C189        C194   1.406       .  A
C190        C191   1.397       .  A
C190        H203   1.083       .  S
C191        C192   1.402       .  A
C191        H204   1.083       .  S
C192        C193   1.407       .  A
C192        C195   1.483       .  S
C193        C194   1.399       .  A
C193        H205   1.082       .  S
C194        H206   1.083       .  S
C195        C196   1.345       .  D
C195        H207   1.086       .  S
C196        C197   1.483       .  S
C196        H208   1.086       .  S
C197        C198   1.402       .  A
C197        C202   1.407       .  A
C198        C199   1.397       .  A
C198        H209   1.083       .  S
C199        C200   1.406       .  A
C199        H210   1.083       .  S
C200        C201   1.406       .  A
C201        C202   1.399       .  A
C201        H211   1.083       .  S
C202        H212   1.082       .  S
C213        C214   1.406       .  A
C213        C218   1.406       .  A
C214        C215   1.397       .  A
C214        H227   1.083       .  S
C215        C216   1.402       .  A
C215        H228   1.083       .  S
C216        C217   1.408       .  A
C216        C219   1.486       .  S
C217        C218   1.401       .  A
C217        H229   1.082       .  S
C218        H230   1.083       .  S
C219        C220   1.346       .  D
C219        H231   1.086       .  S
C220        C221   1.486       .  S
C220        H232   1.086       .  S
C221        C222   1.401       .  A
C221        C226   1.408       .  A
C222        C223   1.397       .  A
C222        H233   1.083       .  S
C223        C224   1.408       .  A
C223        H234   1.082       .  S
C224        C225   1.408       .  A
C225        C226   1.401       .  A
C225        H235   1.082       .  S
C226        H236   1.082       .  S
C237        C238   1.408       .  A
C237        C242   1.407       .  A
C238        C239   1.399       .  A
C238        H251   1.082   1_556  S
C239        C240   1.402       .  A
C239        H252   1.083   1_556  S
C240        C241   1.406       .  A
C240        C243   1.484       .  S
C241        C242   1.397       .  A
C241        H253   1.082       .  S
C242        H254   1.083       .  S
C243        C244   1.345       .  D
C243        H255   1.086       .  S
C244        C245   1.482       .  S
C244        H256   1.086       .  S
C245        C246   1.401       .  A
C245        C250   1.407       .  A
C246        C247   1.395       .  A
C246        H257   1.084   1_556  S
C247        C248   1.406       .  A
C247        H258   1.083   1_556  S
C248        C249   1.406       .  A
C249        C250   1.401       .  A
C249        H259   1.083       .  S
C250        H260   1.082       .  S
C261        C262   1.406       .  A
C261        C266   1.408       .  A
C262        C263   1.397       .  A
C262        H275   1.083       .  S
C263        C264   1.402       .  A
C263        H276   1.083       .  S
C264        C265   1.407       .  A
C264        C267   1.485       .  S
C265        C266   1.399       .  A
C265        H277   1.082       .  S
C266        H278   1.083       .  S
C267        C268   1.346       .  D
C267        H279   1.086       .  S
C268        C269   1.484       .  S
C268        H280   1.086       .  S
C269        C270   1.402       .  A
C269        C274   1.407       .  A
C270        C271   1.398       .  A
C270        H281   1.083       .  S
C271        C272   1.406       .  A
C271        H282   1.083       .  S
C272        C273   1.406       .  A
C273        C274   1.400       .  A
C273        H283   1.083       .  S
C274        H284   1.082       .  S
C285        C286   1.406   1_556  A
C285        C290   1.405       .  A
C286        C287   1.398       .  A
C286        H299   1.083       .  S
C287        C288   1.404   1_554  A
C287        H300   1.084       .  S
C288        C289   1.409       .  A
C288        C291   1.488       .  S
C289        C290   1.397       .  A
C289        H301   1.080       .  S
C290        H302   1.083       .  S
C291        C292   1.347       .  D
C291        H303   1.085   1_556  S
C292        C293   1.484       .  S
C292        H304   1.084       .  S
C293        C294   1.402       .  A
C293        C298   1.408       .  A
C294        C295   1.395       .  A
C294        H305   1.084       .  S
C295        C296   1.404       .  A
C295        H306   1.083       .  S
C296        C297   1.405       .  A
C297        C298   1.399       .  A
C297        H307   1.083   1_556  S
C298        H308   1.081   1_556  S
C309        C310   1.405       .  A
C309        C314   1.406       .  A
C310        C311   1.398       .  A
C310        H323   1.083       .  S
C311        C312   1.403       .  A
C311        H324   1.083       .  S
C312        C313   1.408       .  A
C312        C315   1.488       .  S
C313        C314   1.402       .  A
C313        H325   1.082       .  S
C314        H326   1.083       .  S
C315        C316   1.348       .  D
C315        H327   1.086       .  S
C316        C317   1.489       .  S
C316        H328   1.086       .  S
C317        C318   1.404       .  A
C317        C322   1.407       .  A
C318        C319   1.400       .  A
C318        H329   1.083       .  S
C319        C320   1.406       .  A
C319        H330   1.083       .  S
C320        C321   1.407       .  A
C321        C322   1.401       .  A
C321        H331   1.083       .  S
C322        H332   1.082       .  S
C333        C334   1.405       .  A
C333        C338   1.404       .  A
C334        C335   1.397       .  A
C334        H347   1.083       .  S
C335        C336   1.403       .  A
C335        H348   1.083       .  S
C336        C337   1.410       .  A
C336        C339   1.488       .  S
C337        C338   1.398       .  A
C337        H349   1.080       .  S
C338        H350   1.083       .  S
C339        C340   1.347       .  D
C339        H351   1.085       .  S
C340        C341   1.485       .  S
C340        H352   1.084       .  S
C341        C342   1.402       .  A
C341        C346   1.408       .  A
C342        C343   1.395       .  A
C342        H353   1.083   1_455  S
C343        C344   1.406       .  A
C343        H354   1.083   1_455  S
C344        C345   1.406       .  A
C345        C346   1.400       .  A
C345        H355   1.083       .  S
C346        H356   1.081       .  S
C357        C358   1.405   1_556  A
C357        C362   1.406       .  A
C358        C359   1.397       .  A
C358        H371   1.083   1_545  S
C359        C360   1.403   1_554  A
C359        H372   1.083       .  S
C360        C361   1.409       .  A
C360        C363   1.488       .  S
C361        C362   1.400       .  A
C361        H373   1.081       .  S
C362        H374   1.083       .  S
C363        C364   1.348       .  D
C363        H375   1.085   1_556  S
C364        C365   1.488       .  S
C364        H376   1.084       .  S
C365        C366   1.404       .  A
C365        C370   1.408       .  A
C366        C367   1.398       .  A
C366        H377   1.083       .  S
C367        C368   1.406       .  A
C367        H378   1.083       .  S
C368        C369   1.405       .  A
C369        C370   1.397       .  A
C369        H379   1.083   1_556  S
C370        H380   1.081       .  S
C381        C382   1.406   1_455  A
C381        C386   1.405       .  A
C382        C383   1.399   1_655  A
C382        H395   1.083       .  S
C383        C384   1.403       .  A
C383        H396   1.083   1_455  S
C384        C385   1.407       .  A
C384        C387   1.484       .  S
C385        C386   1.397       .  A
C385        H397   1.082   1_556  S
C386        H398   1.083   1_556  S
C387        C388   1.346       .  D
C387        H399   1.086       .  S
C388        C389   1.482       .  S
C388        H400   1.086       .  S
C389        C390   1.401       .  A
C389        C394   1.406       .  A
C390        C391   1.396       .  A
C390        H401   1.083       .  S
C391        C392   1.406       .  A
C391        H402   1.083       .  S
C392        C393   1.407       .  A
C393        C394   1.398       .  A
C393        H403   1.083   1_556  S
C394        H404   1.082   1_556  S
C405        C406   1.406   1_665  A
C405        C410   1.406       .  A
C406        C407   1.395       .  A
C406        H419   1.083       .  S
C407        C408   1.402   1_445  A
C407        H420   1.083       .  S
C408        C409   1.409       .  A
C408        C411   1.486       .  S
C409        C410   1.400       .  A
C409        H421   1.081       .  S
C410        H422   1.083       .  S
C411        C412   1.347       .  D
C411        H423   1.085   1_665  S
C412        C413   1.486       .  S
C412        H424   1.084       .  S
C413        C414   1.402       .  A
C413        C418   1.408   1_565  A
C414        C415   1.397       .  A
C414        H425   1.083       .  S
C415        C416   1.406       .  A
C415        H426   1.083       .  S
C416        C417   1.406   1_565  A
C417        C418   1.399       .  A
C417        H427   1.083   1_655  S
C418        H428   1.081       .  S
C429        C430   1.406   1_655  A
C429        C434   1.406       .  A
C430        C431   1.397       .  A
C430        H443   1.083       .  S
C431        C432   1.403   1_455  A
C431        H444   1.083       .  S
C432        C433   1.408       .  A
C432        C435   1.487       .  S
C433        C434   1.399       .  A
C433        H445   1.081       .  S
C434        H446   1.083       .  S
C435        C436   1.348       .  D
C435        H447   1.084   1_655  S
C436        C437   1.488       .  S
C436        H448   1.084   1_565  S
C437        C438   1.403   1_565  A
C437        C442   1.409   1_655  A
C438        C439   1.397       .  A
C438        H449   1.083       .  S
C439        C440   1.407   1_545  A
C439        H450   1.083       .  S
C440        C441   1.405   1_655  A
C441        C442   1.399       .  A
C441        H451   1.083       .  S
C442        H452   1.081       .  S
C453        C454   1.405       .  A
C453        C458   1.405       .  A
C454        C455   1.397       .  A
C454        H467   1.083       .  S
C455        C456   1.403       .  A
C455        H468   1.083       .  S
C456        C457   1.410       .  A
C456        C459   1.489   1_545  S
C457        C458   1.401       .  A
C457        H469   1.081   1_545  S
C458        H470   1.083       .  S
C459        C460   1.348       .  D
C459        H471   1.085       .  S
C460        C461   1.489       .  S
C460        H472   1.084       .  S
C461        C462   1.403       .  A
C461        C466   1.409       .  A
C462        C463   1.398       .  A
C462        H473   1.083       .  S
C463        C464   1.406       .  A
C463        H474   1.083       .  S
C464        C465   1.406       .  A
C465        C466   1.399       .  A
C465        H475   1.083       .  S
C466        H476   1.081       .  S
C477        C478   1.404       .  A
C477        C482   1.405       .  A
C478        C479   1.399       .  A
C478        H491   1.083       .  S
C479        C480   1.405       .  A
C479        H492   1.083       .  S
C480        C481   1.409       .  A
C480        C483   1.490       .  S
C481        C482   1.398       .  A
C481        H493   1.081       .  S
C482        H494   1.083       .  S
C483        C484   1.349       .  D
C483        H495   1.084       .  S
C484        C485   1.488       .  S
C484        H496   1.084       .  S
C485        C486   1.404       .  A
C485        C490   1.408       .  A
C486        C487   1.398       .  A
C486        H497   1.083       .  S
C487        C488   1.406       .  A
C487        H498   1.083       .  S
C488        C489   1.406       .  A
C489        C490   1.399       .  A
C489        H499   1.083       .  S
C490        H500   1.081       .  S
C501        C502   1.408       .  A
C501        C506   1.408       .  A
C502        C503   1.400       .  A
C502        H515   1.082       .  S
C503        C504   1.403       .  A
C503        H516   1.083       .  S
C504        C505   1.406       .  A
C504        C507   1.486       .  S
C505        C506   1.398       .  A
C505        H517   1.082       .  S
C506        H518   1.083       .  S
C507        C508   1.347       .  D
C507        H519   1.086       .  S
C508        C509   1.486       .  S
C508        H520   1.086       .  S
C509        C510   1.403       .  A
C509        C514   1.407       .  A
C510        C511   1.398       .  A
C510        H521   1.083       .  S
C511        C512   1.406       .  A
C511        H522   1.083       .  S
C512        C513   1.407       .  A
C513        C514   1.400       .  A
C513        H523   1.083       .  S
C514        H524   1.082       .  S
C525        C526   1.405       .  A
C525        C530   1.405       .  A
C526        C527   1.398       .  A
C526        H539   1.083   1_556  S
C527        C528   1.404       .  A
C527        H540   1.083   1_556  S
C528        C529   1.409       .  A
C528        C531   1.489       .  S
C529        C530   1.399       .  A
C529        H541   1.081       .  S
C530        H542   1.083       .  S
C531        C532   1.349   1_565  D
C531        H543   1.084       .  S
C532        C533   1.489       .  S
C532        H544   1.084       .  S
C533        C534   1.404       .  A
C533        C538   1.409       .  A
C534        C535   1.397       .  A
C534        H545   1.083       .  S
C535        C536   1.405       .  A
C535        H546   1.083       .  S
C536        C537   1.405       .  A
C537        C538   1.399       .  A
C537        H547   1.083   1_556  S
C538        H548   1.081   1_546  S
C549        C550   1.406   1_556  A
C549        C554   1.406       .  A
C550        C551   1.397       .  A
C550        H563   1.083       .  S
C551        C552   1.404   1_554  A
C551        H564   1.084       .  S
C552        C553   1.410       .  A
C552        C555   1.491   1_556  S
C553        C554   1.400       .  A
C553        H565   1.080       .  S
C554        H566   1.083       .  S
C555        C556   1.349   1_554  D
C555        H567   1.085       .  S
C556        C557   1.489       .  S
C556        H568   1.083       .  S
C557        C558   1.404       .  A
C557        C562   1.408       .  A
C558        C559   1.399       .  A
C558        H569   1.083       .  S
C559        C560   1.405       .  A
C559        H570   1.083       .  S
C560        C561   1.406   1_556  A
C561        C562   1.398   1_554  A
C561        H571   1.083       .  S
C562        H572   1.081   1_556  S
C573        C574   1.405   1_556  A
C573        C578   1.405       .  A
C574        C575   1.398       .  A
C574        H587   1.083       .  S
C575        C576   1.404   1_554  A
C575        H588   1.083       .  S
C576        C577   1.410       .  A
C576        C579   1.491       .  S
C577        C578   1.399       .  A
C577        H589   1.080       .  S
C578        H590   1.083       .  S
C579        C580   1.348       .  D
C579        H591   1.085   1_556  S
C580        C581   1.487       .  S
C580        H592   1.083       .  S
C581        C582   1.402       .  A
C581        C586   1.408   1_556  A
C582        C583   1.397       .  A
C582        H593   1.083       .  S
C583        C584   1.406       .  A
C583        H594   1.083       .  S
C584        C585   1.407   1_556  A
C585        C586   1.400       .  A
C585        H595   1.083       .  S
C586        H596   1.082       .  S
C597        C598   1.405       .  A
C597        C602   1.405       .  A
C598        C599   1.396       .  A
C598        H611   1.083       .  S
C599        C600   1.403       .  A
C599        H612   1.083       .  S
C600        C601   1.408       .  A
C600        C603   1.485       .  S
C601        C602   1.399       .  A
C601        H613   1.081       .  S
C602        H614   1.083       .  S
C603        C604   1.348       .  D
C603        H615   1.084       .  S
C604        C605   1.486   1_655  S
C604        H616   1.084       .  S
C605        C606   1.404       .  A
C605        C610   1.408       .  A
C606        C607   1.399       .  A
C606        H617   1.083   1_455  S
C607        C608   1.406       .  A
C607        H618   1.083       .  S
C608        C609   1.404       .  A
C609        C610   1.396       .  A
C609        H619   1.083       .  S
C610        H620   1.081       .  S
C621        C622   1.406       .  A
C621        C626   1.406       .  A
C622        C623   1.398       .  A
C622        H635   1.083       .  S
C623        C624   1.403       .  A
C623        H636   1.083       .  S
C624        C625   1.407       .  A
C624        C627   1.484       .  S
C625        C626   1.396       .  A
C625        H637   1.081       .  S
C626        H638   1.083       .  S
C627        C628   1.347       .  D
C627        H639   1.084       .  S
C628        C629   1.485       .  S
C628        H640   1.085       .  S
C629        C630   1.403       .  A
C629        C634   1.408       .  A
C630        C631   1.396       .  A
C630        H641   1.083       .  S
C631        C632   1.405       .  A
C631        H642   1.083       .  S
C632        C633   1.405       .  A
C633        C634   1.398       .  A
C633        H643   1.083       .  S
C634        H644   1.081       .  S
C645        C646   1.406       .  A
C645        C650   1.405       .  A
C646        C647   1.396       .  A
C646        H659   1.083       .  S
C647        C648   1.401       .  A
C647        H660   1.083       .  S
C648        C649   1.408       .  A
C648        C651   1.482       .  S
C649        C650   1.400       .  A
C649        H661   1.082       .  S
C650        H662   1.083       .  S
C651        C652   1.344       .  D
C651        H663   1.086       .  S
C652        C653   1.483       .  S
C652        H664   1.086       .  S
C653        C654   1.401       .  A
C653        C658   1.407       .  A
C654        C655   1.396       .  A
C654        H665   1.083       .  S
C655        C656   1.407       .  A
C655        H666   1.083       .  S
C656        C657   1.407       .  A
C657        C658   1.399       .  A
C657        H667   1.083       .  S
C658        H668   1.082       .  S
C669        C670   1.405       .  A
C669        C674   1.406       .  A
C670        C671   1.396       .  A
C670        H683   1.083   1_556  S
C671        C672   1.403       .  A
C671        H684   1.083   1_556  S
C672        C673   1.407       .  A
C672        C675   1.483       .  S
C673        C674   1.397       .  A
C673        H685   1.081       .  S
C674        H686   1.083       .  S
C675        C676   1.347       .  D
C675        H687   1.084       .  S
C676        C677   1.485   1_655  S
C676        H688   1.084       .  S
C677        C678   1.403       .  A
C677        C682   1.408       .  A
C678        C679   1.397       .  A
C678        H689   1.083   1_455  S
C679        C680   1.405       .  A
C679        H690   1.083       .  S
C680        C681   1.405       .  A
C681        C682   1.395       .  A
C681        H691   1.083   1_556  S
C682        H692   1.080       .  S
C693        C694   1.406   1_556  A
C693        C698   1.405       .  A
C694        C695   1.400       .  A
C694        H707   1.083       .  S
C695        C696   1.405   1_554  A
C695        H708   1.083       .  S
C696        C697   1.408       .  A
C696        C699   1.490       .  S
C697        C698   1.396       .  A
C697        H709   1.081       .  S
C698        H710   1.083       .  S
C699        C700   1.349       .  D
C699        H711   1.083       .  S
C700        C701   1.490       .  S
C700        H712   1.084       .  S
C701        C702   1.404       .  A
C701        C706   1.410       .  A
C702        C703   1.395       .  A
C702        H713   1.084       .  S
C703        C704   1.404       .  A
C703        H714   1.083       .  S
C704        C705   1.405       .  A
C705        C706   1.401       .  A
C705        H715   1.083   1_556  S
C706        H716   1.079   1_556  S
C717        C718   1.406       .  A
C717        C722   1.404       .  A
C718        C719   1.397       .  A
C718        H731   1.083       .  S
C719        C720   1.401       .  A
C719        H732   1.083       .  S
C720        C721   1.408       .  A
C720        C723   1.483       .  S
C721        C722   1.399       .  A
C721        H733   1.082       .  S
C722        H734   1.083       .  S
C723        C724   1.345       .  D
C723        H735   1.086       .  S
C724        C725   1.483       .  S
C724        H736   1.086       .  S
C725        C726   1.401       .  A
C725        C730   1.408       .  A
C726        C727   1.395       .  A
C726        H737   1.084   1_556  S
C727        C728   1.407       .  A
C727        H738   1.083   1_556  S
C728        C729   1.406       .  A
C729        C730   1.400       .  A
C729        H739   1.083       .  S
C730        H740   1.082       .  S
