geometry optimzed in LAMMPS
_audit_creation_date              2020-11-30 
_audit_creation_method            'lammps2cif' 
_symmetry_space_group_name_H-M    'P1' 
_symmetry_Int_Tables_number       1 
_symmetry_cell_setting            triclinic 
loop_ 
_symmetry_equiv_pos_as_xyz 
  x,y,z 
_cell_length_a                    58.68861317870517 
_cell_length_b                    59.099604713965995 
_cell_length_c                    58.7690478505384 
_cell_angle_alpha                 89.99682559931358 
_cell_angle_beta                  89.9804189371751 
_cell_angle_gamma                 90.08675741144847 
loop_ 
_atom_site_label 
_atom_site_type_symbol 
_atom_site_fract_x 
_atom_site_fract_y 
_atom_site_fract_z 
_atom_site_charge 
N1          N  0.65549682  0.19204308  0.87421949    -0.27410
N2          N  0.65220702  0.19822470  0.85283306    -0.35260
C3          C  0.65321826  0.22092926  0.85148174     0.00930
C4          C  0.65738657  0.22934756  0.87300106     0.06960
C5          C  0.65893062  0.21064353  0.88698740    -0.06140
H6          H  0.65206673  0.23051264  0.83583874     0.07630
H7          H  0.66282991  0.21050727  0.90497838     0.08830
Cu8        Cu  0.64899787  0.17553535  0.82603123     0.44170
Cu9        Cu  0.65630407  0.15858222  0.88490455     0.41990
Cu10       Cu  0.64846223  0.11626325  0.84097392     0.43880
N11         N  0.64925416  0.14956119  0.80222369    -0.34790
N12         N  0.64897747  0.12786534  0.80773994    -0.29050
C13         C  0.65140558  0.11537862  0.78875758    -0.05150
C14         C  0.65310372  0.12992406  0.77046977     0.07070
C15         C  0.65183417  0.15144438  0.77955118     0.00870
H16         H  0.65295061  0.09714132  0.78844532     0.08520
H17         H  0.65379505  0.16727787  0.77051311     0.07600
N18         N  0.65276400  0.10863300  0.87508477    -0.36240
N19         N  0.65624585  0.12400148  0.89105643    -0.28420
C20         C  0.65955047  0.11345816  0.91106937    -0.03660
C21         C  0.65809348  0.09033072  0.90750319     0.04950
C22         C  0.65359135  0.08793249  0.88451649     0.03040
H23         H  0.66242540  0.12204616  0.92706856     0.08150
H24         H  0.65143914  0.07226616  0.87523308     0.06980
N25         N  0.88836570  0.19175849  0.64180456    -0.27410
N26         N  0.86710072  0.19799308  0.63776454    -0.35260
C27         C  0.86578270  0.22068968  0.63881870     0.00930
C28         C  0.88717889  0.22902850  0.64385336     0.06960
C29         C  0.90106793  0.21030913  0.64580252    -0.06140
H30         H  0.85020054  0.23030826  0.63715420     0.07630
H31         H  0.91893718  0.21012403  0.65031550     0.08830
Cu32       Cu  0.84022043  0.17545135  0.63385725     0.44170
Cu33       Cu  0.89903327  0.15833490  0.64290068     0.41990
Cu34       Cu  0.85461167  0.11625200  0.63730947     0.43880
N35         N  0.81612430  0.14973537  0.63516610    -0.34790
N36         N  0.82147023  0.12808183  0.63698839    -0.29050
C37         C  0.80233284  0.11595765  0.64023143    -0.05150
C38         C  0.78411156  0.13067256  0.64009614     0.07070
C39         C  0.79337990  0.15193674  0.63693254     0.00870
H40         H  0.80182823  0.09791271  0.64329860     0.08520
H41         H  0.78441525  0.16791740  0.63722989     0.07600
N42         N  0.88880688  0.10846216  0.64045886    -0.36240
N43         N  0.90505493  0.12376357  0.64306344    -0.28420
C44         C  0.92514712  0.11311929  0.64558372    -0.03660
C45         C  0.92131378  0.09006854  0.64422946     0.04950
C46         C  0.89810356  0.08770964  0.64105900     0.03040
H47         H  0.94135843  0.12153056  0.64796259     0.08150
H48         H  0.88856629  0.07209035  0.63974552     0.06980
N49         N  0.81993599  0.37289214  0.87237348    -0.27410
N50         N  0.81479193  0.36795495  0.85103526    -0.35260
C51         C  0.79265410  0.36225222  0.84982017     0.00930
C52         C  0.78345185  0.36394800  0.87135210     0.06960
C53         C  0.80112825  0.37067171  0.88529204    -0.06140
H54         H  0.78408974  0.35661012  0.83453472     0.07630
H55         H  0.80066572  0.37263949  0.90358904     0.08830
Cu56       Cu  0.83832315  0.36748169  0.82479364     0.44170
Cu57       Cu  0.85289304  0.37903392  0.88331134     0.41990
Cu58       Cu  0.89720670  0.37523093  0.84006889     0.43880
N59         N  0.86473886  0.36703924  0.80145009    -0.34790
N60         N  0.88635610  0.37016106  0.80696643    -0.29050
C61         C  0.89932223  0.36765122  0.78825403    -0.05150
C62         C  0.88509949  0.36279203  0.77020512     0.07070
C63         C  0.86334869  0.36239564  0.77910837     0.00870
H64         H  0.91774244  0.36836930  0.78802303     0.08520
H65         H  0.84775866  0.35826961  0.77019609     0.07600
N66         N  0.90352646  0.37709092  0.87465625    -0.36240
N67         N  0.88745923  0.37885691  0.89034197    -0.28420
C68         C  0.89721305  0.37855506  0.91102923    -0.03660
C69         C  0.92050875  0.37661519  0.90817661     0.04950
C70         C  0.92390945  0.37550249  0.88494928     0.03040
H71         H  0.88798496  0.37897921  0.92696473     0.08150
H72         H  0.93997098  0.37331938  0.87618406     0.06980
N73         N  0.65950978  0.28991384  0.88290791    -0.27410
N74         N  0.68146376  0.28489621  0.88329045    -0.35260
C75         C  0.68393311  0.26239354  0.88096332     0.00930
C76         C  0.66253922  0.25287099  0.87893345     0.06960
C77         C  0.64743930  0.27074059  0.88003536    -0.06140
H78         H  0.70012649  0.25376921  0.87962137     0.07630
H79         H  0.62912379  0.26997603  0.87808952     0.08830
Cu80       Cu  0.70716905  0.30899459  0.88403559     0.44170
Cu81       Cu  0.64718037  0.32279220  0.88412485     0.41990
Cu82       Cu  0.68977656  0.36751533  0.88530047     0.43880
N83         N  0.72976790  0.33596909  0.88277084    -0.34790
N84         N  0.72345510  0.35740534  0.88397288    -0.29050
C85         C  0.74188694  0.37070970  0.88134753    -0.05150
C86         C  0.76059412  0.35693386  0.87829238     0.07070
C87         C  0.75235346  0.33505910  0.87907874     0.00870
H88         H  0.74145783  0.38898265  0.88031942     0.08520
H89         H  0.76189168  0.31966002  0.87625692     0.07600
N90         N  0.65520442  0.37319770  0.88171347    -0.36240
N91         N  0.63962420  0.35700345  0.88167971    -0.28420
C92         C  0.61901931  0.36634675  0.87828962    -0.03660
C93         C  0.62188641  0.38942053  0.87558839     0.04950
C94         C  0.64498314  0.39321652  0.87810549     0.03040
H95         H  0.60318905  0.35698816  0.87735506     0.08150
H96         H  0.65372819  0.40932693  0.87729931     0.06980
N97         N  0.89673498  0.28958513  0.64629948    -0.27410
N98         N  0.89758512  0.28440980  0.66817671    -0.35260
C99         C  0.89545439  0.26186506  0.67052795     0.00930
C100        C  0.89303999  0.25252452  0.64912715     0.06960
C101        C  0.89372825  0.27051340  0.63416656    -0.06140
H102        H  0.89446803  0.25308992  0.68665709     0.07630
H103        H  0.89146130  0.26989133  0.61590826     0.08830
Cu104      Cu  0.89855215  0.30842295  0.69389294     0.44170
Cu105      Cu  0.89770048  0.32245283  0.63410190     0.41990
Cu106      Cu  0.89750330  0.36716168  0.67634576     0.43880
N107        N  0.89664926  0.33540844  0.71636851    -0.34790
N108        N  0.89655564  0.35687160  0.70998626    -0.29050
C109        C  0.89356824  0.37003578  0.72841622    -0.05150
C110        C  0.89177524  0.35615213  0.74720357     0.07070
C111        C  0.89360361  0.33434422  0.73901721     0.00870
H112        H  0.89167181  0.38823789  0.72799085     0.08520
H113        H  0.89185693  0.31883373  0.74864583     0.07600
N114        N  0.89565892  0.37285742  0.64164967    -0.36240
N115        N  0.89605967  0.35657028  0.62622471    -0.28420
C116        C  0.89422873  0.36583086  0.60541168    -0.03660
C117        C  0.89263354  0.38903088  0.60792200     0.04950
C118        C  0.89338992  0.39290561  0.63108318     0.03040
H119        H  0.89380465  0.35637281  0.58965488     0.08150
H120        H  0.89240033  0.40909100  0.63962465     0.06980
N121        N  0.72301330  0.12267999  0.64427740    -0.27410
N122        N  0.72898006  0.12012261  0.66582418    -0.35260
C123        C  0.75179355  0.12163337  0.66745099     0.00930
C124        C  0.76045681  0.12542074  0.64593217     0.06960
C125        C  0.74182080  0.12614486  0.63165689    -0.06140
H126        H  0.76124993  0.12111359  0.68324224     0.07630
H127        H  0.74185058  0.12950228  0.61355948     0.08830
Cu128      Cu  0.70569022  0.11750515  0.69228804     0.44170
Cu129      Cu  0.68955392  0.12264385  0.63320366     0.41990
Cu130      Cu  0.64602372  0.11684429  0.67660334     0.42680
N131        N  0.67919329  0.11894651  0.71565234    -0.34790
N132        N  0.65739406  0.11874876  0.70993022    -0.29050
C133        C  0.64467190  0.12186185  0.72872589    -0.05150
C134        C  0.65919080  0.12397100  0.74707232     0.07070
C135        C  0.68091371  0.12214468  0.73824685     0.00870
H136        H  0.62630089  0.12334772  0.72887088     0.08520
H137        H  0.69680149  0.12394737  0.74740629     0.07600
N138        N  0.63910728  0.11927612  0.64211446    -0.36240
N139        N  0.65497516  0.12209133  0.62637602    -0.28420
C140        C  0.64489920  0.12461653  0.60599444    -0.03660
C141        C  0.62163526  0.12305830  0.60907520     0.04950
C142        C  0.61850190  0.11969443  0.63212866     0.03040
H143        H  0.65384624  0.12735301  0.59013004     0.08150
H144        H  0.60244714  0.11823584  0.64106449     0.06980
N145        N  0.22440783  0.37494319  0.87179853    -0.27410
N146        N  0.22927821  0.36946764  0.85052330    -0.35260
C147        C  0.25135609  0.36362748  0.84919305     0.00930
C148        C  0.26088723  0.36590920  0.87053070     0.06960
C149        C  0.24339949  0.37306834  0.88450837    -0.06140
H150        H  0.25965884  0.35745699  0.83397408     0.07630
H151        H  0.24404363  0.37525737  0.90277428     0.08830
Cu152      Cu  0.20557658  0.36859332  0.82440736     0.44170
Cu153      Cu  0.19142112  0.38052023  0.88315711     0.41990
Cu154      Cu  0.14712288  0.37711651  0.83973919     0.43880
N155        N  0.17926231  0.36905713  0.80091457    -0.34790
N156        N  0.15776374  0.37281754  0.80643952    -0.29050
C157        C  0.14474771  0.37092384  0.78768355    -0.05150
C158        C  0.15880822  0.36577051  0.76957549     0.07070
C159        C  0.18051173  0.36451989  0.77853712     0.00870
H160        H  0.12634540  0.37196632  0.78750332     0.08520
H161        H  0.19593371  0.35980124  0.76964329     0.07600
N162        N  0.14090965  0.37652400  0.87441953    -0.36240
N163        N  0.15686256  0.37804412  0.89021604    -0.28420
C164        C  0.14713735  0.37577799  0.91082645    -0.03660
C165        C  0.12395096  0.37230586  0.90785570     0.04950
C166        C  0.12066798  0.37317521  0.88454164     0.03040
H167        H  0.15641962  0.37685918  0.92664095     0.08150
H168        H  0.10475069  0.37096169  0.87552224     0.06980
N169        N  0.15700396  0.19346338  0.64216335    -0.27410
N170        N  0.17853834  0.19925874  0.63893639    -0.35260
C171        C  0.18041134  0.22189718  0.64040754     0.00930
C172        C  0.15906675  0.23062025  0.64488979     0.06960
C173        C  0.14463659  0.21221105  0.64604745    -0.06140
H174        H  0.19626114  0.23120107  0.63925757     0.07630
H175        H  0.12659614  0.21236456  0.64983671     0.08830
Cu176      Cu  0.20465416  0.17595319  0.63514259     0.44170
Cu177      Cu  0.14562388  0.16031439  0.64207852     0.41990
Cu178      Cu  0.18825132  0.11678674  0.63391634     0.43880
N179        N  0.22773342  0.14940182  0.63515421    -0.34790
N180        N  0.22176715  0.12781394  0.63458437    -0.29050
C181        C  0.24051438  0.11495960  0.63699087    -0.05150
C182        C  0.25908243  0.12916540  0.63901809     0.07070
C183        C  0.25042895  0.15084374  0.63794917     0.00870
H184        H  0.24045856  0.09670528  0.63838260     0.08520
H185        H  0.25975951  0.16648420  0.64022125     0.07600
N186        N  0.15382612  0.11016817  0.63810296    -0.36240
N187        N  0.13836417  0.12605156  0.64142164    -0.28420
C188        C  0.11795979  0.11624122  0.64471170    -0.03660
C189        C  0.12061032  0.09298229  0.64326701     0.04950
C190        C  0.14364981  0.08980730  0.63915355     0.03040
H191        H  0.10252536  0.12546677  0.64850046     0.08150
H192        H  0.15244460  0.07385713  0.63715294     0.06980
N193        N  0.39082804  0.19322489  0.87400680    -0.27410
N194        N  0.39212729  0.19892388  0.85227055    -0.35260
C195        C  0.38974248  0.22146753  0.85037980     0.00930
C196        C  0.38687199  0.23030191  0.87191666     0.06960
C197        C  0.38751425  0.21201481  0.88651280    -0.06140
H198        H  0.38918843  0.23061338  0.83444138     0.07630
H199        H  0.38493303  0.21222625  0.90474042     0.08830
Cu200      Cu  0.39455613  0.17582833  0.82582514     0.44170
Cu201      Cu  0.39121296  0.16002964  0.88546527     0.41990
Cu202      Cu  0.39104183  0.11703029  0.84138561     0.43880
N203        N  0.39333962  0.14973961  0.80226977    -0.34790
N204        N  0.39174054  0.12816507  0.80801672    -0.29050
C205        C  0.38888681  0.11566576  0.78910543    -0.05150
C206        C  0.38898597  0.13007209  0.77063043     0.07070
C207        C  0.39170560  0.15153687  0.77951383     0.00870
H208        H  0.38597409  0.09758562  0.78892286     0.08520
H209        H  0.39125051  0.16736028  0.77026634     0.07600
N210        N  0.38812581  0.11005333  0.87576819    -0.36240
N211        N  0.38824917  0.12563886  0.89189415    -0.28420
C212        C  0.38560365  0.11548829  0.91221752    -0.03660
C213        C  0.38342685  0.09240579  0.90866198     0.04950
C214        C  0.38539764  0.08960620  0.88537171     0.03040
H215        H  0.38592298  0.12431834  0.92831083     0.08150
H216        H  0.38478743  0.07382752  0.87605324     0.06980
N217        N  0.38395872  0.29073415  0.88166333    -0.27410
N218        N  0.36203440  0.28569369  0.88065152    -0.35260
C219        C  0.35970926  0.26319281  0.87808412     0.00930
C220        C  0.38120950  0.25373108  0.87756813     0.06960
C221        C  0.39620313  0.27161472  0.87969166    -0.06140
H222        H  0.34363167  0.25451070  0.87577968     0.07630
H223        H  0.41460851  0.27091104  0.87895008     0.08830
Cu224      Cu  0.33663257  0.31003679  0.88082345     0.44170
Cu225      Cu  0.39594480  0.32359350  0.88350087     0.41990
Cu226      Cu  0.35398901  0.36848626  0.88963624     0.43880
N227        N  0.31433731  0.33722334  0.88108578    -0.34790
N228        N  0.32037865  0.35836898  0.88541606    -0.29050
C229        C  0.30194756  0.37177888  0.88347480    -0.05150
C230        C  0.28360806  0.35839572  0.87744331     0.07070
C231        C  0.29204446  0.33667334  0.87590875     0.00870
H232        H  0.30220987  0.39002856  0.88490585     0.08520
H233        H  0.28281858  0.32166251  0.87075381     0.07600
N234        N  0.38871948  0.37408634  0.88596475    -0.36240
N235        N  0.40377669  0.35771809  0.88321044    -0.28420
C236        C  0.42431363  0.36687429  0.87906024    -0.03660
C237        C  0.42227467  0.39024157  0.87941027     0.04950
C238        C  0.39936785  0.39413384  0.88377270     0.03040
H239        H  0.43933876  0.35705759  0.87516666     0.08150
H240        H  0.39091475  0.41034733  0.88488303     0.06980
N241        N  0.31948252  0.11759121  0.64388709    -0.27410
N242        N  0.31365633  0.11844060  0.66561380    -0.35260
C243        C  0.29103838  0.12170679  0.66713995     0.00930
C244        C  0.28229926  0.12281092  0.64536379     0.06960
C245        C  0.30073068  0.12029100  0.63101268    -0.06140
H246        H  0.28181901  0.12411422  0.68289861     0.07630
H247        H  0.30069951  0.12139616  0.61263670     0.08830
Cu248      Cu  0.33690411  0.11764075  0.69218253     0.44170
Cu249      Cu  0.35288986  0.11573431  0.63276140     0.41990
Cu250      Cu  0.39638638  0.11805053  0.67665204     0.43880
N251        N  0.36323826  0.11941965  0.71564725    -0.34790
N252        N  0.38503466  0.11985652  0.70994064    -0.29050
C253        C  0.39767074  0.12302151  0.72877438    -0.05150
C254        C  0.38309069  0.12436963  0.74714477     0.07070
C255        C  0.36142292  0.12211114  0.73829472     0.00870
H256        H  0.41601123  0.12488879  0.72896215     0.08520
H257        H  0.34549202  0.12331322  0.74748202     0.07600
N258        N  0.40324388  0.11906940  0.64212611    -0.36240
N259        N  0.38743652  0.11828125  0.62613501    -0.28420
C260        C  0.39740935  0.12078982  0.60569435    -0.03660
C261        C  0.42063229  0.12344660  0.60897979     0.04950
C262        C  0.42369495  0.12203469  0.63229321     0.03040
H263        H  0.38832385  0.12075511  0.58968908     0.08150
H264        H  0.43954879  0.12375170  0.64152589     0.06980
N265        N  0.14967120  0.29117149  0.64673850    -0.27410
N266        N  0.14829643  0.28616097  0.66861777    -0.35260
C267        C  0.15048195  0.26365642  0.67120548     0.00930
C268        C  0.15349112  0.25419758  0.64993544     0.06960
C269        C  0.15305739  0.27204912  0.63481380    -0.06140
H270        H  0.15094507  0.25498642  0.68741339     0.07630
H271        H  0.15559622  0.27129216  0.61659491     0.08830
Cu272      Cu  0.14625732  0.31051556  0.69389366     0.44170
Cu273      Cu  0.14839676  0.32392317  0.63444493     0.41990
Cu274      Cu  0.14366834  0.36933287  0.67588768     0.43880
N275        N  0.14718411  0.33778880  0.71604164    -0.34790
N276        N  0.14576362  0.35920669  0.70964173    -0.29050
C277        C  0.14852179  0.37255075  0.72800838    -0.05150
C278        C  0.15184031  0.35881517  0.74672196     0.07070
C279        C  0.15107307  0.33694648  0.73855897     0.00870
H280        H  0.14935383  0.39083394  0.72753918     0.08520
H281        H  0.15407480  0.32157996  0.74809946     0.07600
N282        N  0.14655298  0.37451076  0.64106584    -0.36240
N283        N  0.14836764  0.35791399  0.62609976    -0.28420
C284        C  0.15132658  0.36676088  0.60525036    -0.03660
C285        C  0.15121445  0.39009754  0.60709199     0.04950
C286        C  0.14834387  0.39440173  0.63007891     0.03040
H287        H  0.15437767  0.35680013  0.59014267     0.08150
H288        H  0.14788301  0.41079842  0.63825269     0.06980
N289        N  0.40037697  0.78992113  0.87201322    -0.27410
N290        N  0.39782827  0.78477934  0.85027756    -0.35260
C291        C  0.39442404  0.76239051  0.84828171     0.00930
C292        C  0.39516579  0.75300197  0.86975635     0.06960
C293        C  0.39880540  0.77087004  0.88446609    -0.06140
H294        H  0.39067236  0.75375546  0.83248441     0.07630
H295        H  0.39895211  0.77027423  0.90286521     0.08830
Cu296      Cu  0.39704274  0.80862021  0.82458244     0.44170
Cu297      Cu  0.40270843  0.82296532  0.88346505     0.41990
Cu298      Cu  0.40721433  0.86690439  0.83977214     0.43880
N299        N  0.39684517  0.83492343  0.80143023    -0.34790
N300        N  0.40163389  0.85617422  0.80663112    -0.29050
C301        C  0.39927567  0.86902568  0.78785662    -0.05150
C302        C  0.39250059  0.85511387  0.77021409     0.07070
C303        C  0.39099211  0.83369635  0.77938047     0.00870
H304        H  0.40105352  0.88724423  0.78742148     0.08520
H305        H  0.38549304  0.81843120  0.77081569     0.07600
N306        N  0.40430910  0.87327561  0.87437286    -0.36240
N307        N  0.40179024  0.85737719  0.89003090    -0.28420
C308        C  0.39766832  0.86722268  0.91023671    -0.03660
C309        C  0.39769803  0.89040051  0.90716129     0.04950
C310        C  0.40217446  0.89366287  0.88429501     0.03040
H311        H  0.39478447  0.85815095  0.92596852     0.08150
H312        H  0.40295406  0.90965646  0.87536634     0.06980
N313        N  0.22373084  0.85603064  0.63102837    -0.27410
N314        N  0.22907757  0.83466995  0.63500587    -0.35260
C315        C  0.25127603  0.83337491  0.64039323     0.00930
C316        C  0.26036795  0.85488361  0.63940529     0.06960
C317        C  0.24252733  0.86890003  0.63344190    -0.06140
H318        H  0.26000790  0.81798888  0.64519743     0.07630
H319        H  0.24287806  0.88716196  0.63220004     0.08830
Cu320      Cu  0.20585424  0.80834192  0.63408112     0.44170
Cu321      Cu  0.19047280  0.86663645  0.62594829     0.41990
Cu322      Cu  0.14723315  0.82196915  0.62329991     0.43880
N323        N  0.18029207  0.78432258  0.63191948    -0.34790
N324        N  0.15884174  0.78908168  0.62704424    -0.29050
C325        C  0.14642216  0.76993217  0.62815069    -0.05150
C326        C  0.16082685  0.75243615  0.63411856     0.07070
C327        C  0.18207403  0.76215089  0.63656107     0.00870
H328        H  0.12808750  0.76912712  0.62640675     0.08520
H329        H  0.19749855  0.75390803  0.64226588     0.07600
N330        N  0.14001370  0.85621898  0.62563600    -0.36240
N331        N  0.15562708  0.87236271  0.62658141    -0.28420
C332        C  0.14521669  0.89238069  0.62966319    -0.03660
C333        C  0.12195525  0.88870564  0.63044900     0.04950
C334        C  0.11928697  0.86556165  0.62810105     0.03040
H335        H  0.15396543  0.90839139  0.63161171     0.08150
H336        H  0.10348675  0.85612688  0.62877958     0.06980
N337        N  0.15965299  0.61637355  0.80545840    -0.27410
N338        N  0.17978346  0.62585537  0.80206164    -0.35260
C339        C  0.18127282  0.63275793  0.78034044     0.00930
C340        C  0.16129386  0.62698888  0.76941887     0.06960
C341        C  0.14791413  0.61656901  0.78574447    -0.06140
H342        H  0.19589866  0.64121351  0.77300525     0.07630
H343        H  0.13068024  0.61038078  0.78368203     0.08830
Cu344      Cu  0.20474192  0.62811736  0.82675068     0.44170
Cu345      Cu  0.14902130  0.60576044  0.83750637     0.41990
Cu346      Cu  0.19305903  0.60398410  0.88181876     0.43880
N347        N  0.22900382  0.62482839  0.85200555    -0.34790
N348        N  0.22534682  0.61472956  0.87175489    -0.29050
C349        C  0.24490583  0.61478330  0.88379988    -0.05150
C350        C  0.26137862  0.62575892  0.87103506     0.07070
C351        C  0.25070706  0.63197485  0.85109560     0.00870
H352        H  0.24670417  0.60828306  0.90091340     0.08520
H353        H  0.25816257  0.64106023  0.83694008     0.07600
N354        N  0.15834891  0.59943864  0.88786542    -0.36240
N355        N  0.14250048  0.60014028  0.87187336    -0.28420
C356        C  0.12185314  0.59853072  0.88171962    -0.03660
C357        C  0.12474310  0.59649206  0.90504126     0.04950
C358        C  0.14812784  0.59735568  0.90827151     0.03040
H359        H  0.10597488  0.60019340  0.87257956     0.08150
H360        H  0.15704327  0.59716569  0.92438135     0.06980
N361        N  0.38973656  0.69297542  0.88103733    -0.27410
N362        N  0.36812331  0.69870805  0.87852076    -0.35260
C363        C  0.36677874  0.72113621  0.87510603     0.00930
C364        C  0.38855333  0.72991857  0.87576706     0.06960
C365        C  0.40276499  0.71167260  0.87941565    -0.06140
H366        H  0.35118619  0.73023634  0.87160234     0.07630
H367        H  0.42119710  0.71178941  0.87970618     0.08830
Cu368      Cu  0.34158562  0.67566359  0.87834609     0.44170
Cu369      Cu  0.40018569  0.65963590  0.88366151     0.41990
Cu370      Cu  0.35479537  0.61703859  0.88807217     0.43880
N371        N  0.31721333  0.65039995  0.87978804    -0.34790
N372        N  0.32168226  0.62902771  0.88468450    -0.29050
C373        C  0.30214770  0.61703155  0.88371720    -0.05150
C374        C  0.28475960  0.63160623  0.87761458     0.07070
C375        C  0.29492997  0.65252165  0.87510975     0.00870
H376        H  0.30099763  0.59885952  0.88564022     0.08520
H377        H  0.28685296  0.66803277  0.86961355     0.07600
N378        N  0.38919233  0.60963404  0.88396432    -0.36240
N379        N  0.40546566  0.62502859  0.88202722    -0.28420
C380        C  0.42534954  0.61460585  0.87770188    -0.03660
C381        C  0.42145725  0.59152056  0.87676061     0.04950
C382        C  0.39837254  0.58900505  0.88102631     0.03040
H383        H  0.44143737  0.62327766  0.87546848     0.08150
H384        H  0.38880011  0.57334893  0.88133418     0.06980
N385        N  0.14904286  0.62907735  0.70885411    -0.27410
N386        N  0.15330252  0.65063590  0.71313284    -0.35260
C387        C  0.15752665  0.65319015  0.73544222     0.00930
C388        C  0.15536555  0.63234994  0.74580013     0.06960
C389        C  0.14996830  0.61737984  0.72851964    -0.06140
H390        H  0.16230804  0.66898517  0.74344604     0.07630
H391        H  0.14829255  0.59919831  0.72989497     0.08830
Cu392      Cu  0.15393905  0.67565536  0.68854817     0.44170
Cu393      Cu  0.14573328  0.61662846  0.67593238     0.41990
Cu394      Cu  0.14296121  0.65956041  0.63084476     0.43880
N395        N  0.15221795  0.69857005  0.66203191    -0.34790
N396        N  0.14716356  0.69293987  0.64085916    -0.29050
C397        C  0.14822278  0.71157062  0.62769005    -0.05150
C398        C  0.15436428  0.72962154  0.64133599     0.07070
C399        C  0.15691478  0.72079224  0.66290724     0.00870
H400        H  0.14612722  0.71167737  0.60940094     0.08520
H401        H  0.16249845  0.72970896  0.67799178     0.07600
N402        N  0.14595869  0.62505536  0.62513514    -0.36240
N403        N  0.14740270  0.60954624  0.64130448    -0.28420
C404        C  0.15112835  0.58924667  0.63160449    -0.03660
C405        C  0.15210016  0.59212264  0.60822050     0.04950
C406        C  0.14857306  0.61501999  0.60479137     0.03040
H407        H  0.15291939  0.57357805  0.64093941     0.08150
H408        H  0.14854634  0.62388640  0.58868391     0.06980
N409        N  0.32009568  0.86937198  0.64510448    -0.27410
N410        N  0.31505204  0.86399215  0.66635688    -0.35260
C411        C  0.29277511  0.85888414  0.66768747     0.00930
C412        C  0.28333947  0.86155795  0.64635237     0.06960
C413        C  0.30106662  0.86815088  0.63238255    -0.06140
H414        H  0.28423949  0.85300307  0.68290445     0.07630
H415        H  0.30049879  0.87045102  0.61412756     0.08830
Cu416      Cu  0.33886033  0.86265562  0.69233238     0.44170
Cu417      Cu  0.35321922  0.87412551  0.63396712     0.41990
Cu418      Cu  0.39759721  0.87254290  0.67726262     0.43880
N419        N  0.36515706  0.86399028  0.71580249    -0.34790
N420        N  0.38652666  0.86873969  0.71047258    -0.29050
C421        C  0.39939849  0.86765850  0.72938531    -0.05150
C422        C  0.38541392  0.86182184  0.74734642     0.07070
C423        C  0.36390455  0.85942146  0.73816329     0.00870
H424        H  0.41774323  0.86946133  0.72973048     0.08520
H425        H  0.34862321  0.85400310  0.74692281     0.07600
N426        N  0.40376774  0.87013957  0.64267008    -0.36240
N427        N  0.38765433  0.87104025  0.62697144    -0.28420
C428        C  0.39709929  0.86763561  0.60643175    -0.03660
C429        C  0.42017466  0.86403567  0.60937403     0.04950
C430        C  0.42388405  0.86602320  0.63252562     0.03040
H431        H  0.38776142  0.86725050  0.59056488     0.08150
H432        H  0.43997067  0.86443333  0.64136618     0.06980
N433        N  0.88711832  0.78904008  0.62823284    -0.27410
N434        N  0.86562029  0.78367239  0.63236024    -0.35260
C435        C  0.86421031  0.76145888  0.63696521     0.00930
C436        C  0.88574614  0.75230980  0.63533507     0.06960
C437        C  0.89993875  0.77020468  0.62985839    -0.06140
H438        H  0.84877285  0.75279311  0.64204737     0.07630
H439        H  0.91832866  0.76985291  0.62863514     0.08830
Cu440      Cu  0.83917628  0.80671852  0.63371350     0.44170
Cu441      Cu  0.89817440  0.82230055  0.62440430     0.41990
Cu442      Cu  0.85351816  0.86523671  0.62897854     0.43880
N443        N  0.81520740  0.83228302  0.63503980    -0.34790
N444        N  0.82037566  0.85393314  0.63274247    -0.29050
C445        C  0.80134897  0.86634483  0.63532586    -0.05150
C446        C  0.78347624  0.85169864  0.63945776     0.07070
C447        C  0.79280589  0.83028897  0.63932863     0.00870
H448        H  0.80078540  0.88464199  0.63525811     0.08520
H449        H  0.78411152  0.81449758  0.64276487     0.07600
N450        N  0.88805632  0.87226060  0.62891877    -0.36240
N451        N  0.90429420  0.85691289  0.62692009    -0.28420
C452        C  0.92464496  0.86724924  0.62885548    -0.03660
C453        C  0.92108692  0.89022579  0.63225550     0.04950
C454        C  0.89760133  0.89264676  0.63231637     0.03040
H455        H  0.94083681  0.85855069  0.62827047     0.08150
H456        H  0.88795659  0.90786744  0.63559511     0.06980
N457        N  0.64369270  0.85546800  0.80688592    -0.27410
N458        N  0.64853487  0.83425961  0.80163926    -0.35260
C459        C  0.65380375  0.83301953  0.77944135     0.00930
C460        C  0.65181873  0.85437897  0.77021479     0.06960
C461        C  0.64541922  0.86827770  0.78800484    -0.06140
H462        H  0.65931266  0.81780706  0.77081409     0.07630
H463        H  0.64354158  0.88648096  0.78757601     0.08830
Cu464      Cu  0.64910527  0.80808272  0.82495241     0.44170
Cu465      Cu  0.63859894  0.86606870  0.84013758     0.41990
Cu466      Cu  0.63732204  0.82133066  0.88333256     0.43880
N467        N  0.64804497  0.78404591  0.85047666    -0.34790
N468        N  0.64267146  0.78860290  0.87183362    -0.29050
C469        C  0.64427170  0.76949079  0.88420959    -0.05150
C470        C  0.65115543  0.75226784  0.86987780     0.07070
C471        C  0.65354065  0.76206715  0.84871066     0.00870
H472        H  0.64201909  0.76853763  0.90245688     0.08520
H473        H  0.65949701  0.75398741  0.83330112     0.07600
N474        N  0.63890778  0.85565594  0.89052990    -0.36240
N475        N  0.63952456  0.87180271  0.87495763    -0.28420
C476        C  0.64272285  0.89182796  0.88534288    -0.03660
C477        C  0.64409112  0.88818042  0.90858218     0.04950
C478        C  0.64164670  0.86500858  0.91120058     0.03040
H479        H  0.64436406  0.90782906  0.87654651     0.08150
H480        H  0.64283436  0.85544589  0.92684438     0.06980
N481        N  0.82140389  0.61520998  0.87309214    -0.27410
N482        N  0.81748427  0.62405059  0.85280448    -0.35260
C483        C  0.79559815  0.63047850  0.85148960     0.00930
C484        C  0.78505535  0.62510011  0.87175150     0.06960
C485        C  0.80182798  0.61540994  0.88514650    -0.06140
H486        H  0.78793069  0.63852555  0.83683947     0.07630
H487        H  0.80017345  0.60983078  0.90260247     0.08830
Cu488      Cu  0.84168775  0.62658722  0.82742350     0.44170
Cu489      Cu  0.85402304  0.60562071  0.88333646     0.41990
Cu490      Cu  0.89743154  0.60424125  0.83796733     0.43880
N491        N  0.86644216  0.62403641  0.80259056    -0.34790
N492        N  0.88656663  0.61455501  0.80584961    -0.29050
C493        C  0.89820768  0.61487777  0.78605760    -0.05150
C494        C  0.88475160  0.62536453  0.76984962     0.07070
C495        C  0.86484699  0.63103109  0.78091484     0.00870
H496        H  0.91545666  0.60881730  0.78388459     0.08520
H497        H  0.85023331  0.63958624  0.77373577     0.07600
N498        N  0.90442710  0.60064976  0.87256929    -0.36240
N499        N  0.88887323  0.60121271  0.88887176    -0.28420
C500        C  0.89943975  0.60019335  0.90917878    -0.03660
C501        C  0.92279175  0.59915326  0.90562891     0.04950
C502        C  0.92522425  0.59928310  0.88213213     0.03040
H503        H  0.89076669  0.60106792  0.92540052     0.08150
H504        H  0.94093324  0.59867290  0.87254343     0.06980
N505        N  0.89549051  0.62817782  0.70905799    -0.27410
N506        N  0.89239042  0.64981920  0.71382084    -0.35260
C507        C  0.88901514  0.65212302  0.73631465     0.00930
C508        C  0.89056172  0.63101087  0.74625040     0.06960
C509        C  0.89464853  0.61616270  0.72853119    -0.06140
H510        H  0.88513351  0.66793385  0.74473777     0.07630
H511        H  0.89543605  0.59790042  0.72951477     0.08830
Cu512      Cu  0.89209327  0.67522116  0.68951356     0.44170
Cu513      Cu  0.89722226  0.61616700  0.67589432     0.41990
Cu514      Cu  0.90170177  0.65921247  0.63122524     0.43880
N515        N  0.89408190  0.69825673  0.66300106    -0.34790
N516        N  0.89852214  0.69261360  0.64168609    -0.29050
C517        C  0.89763040  0.71132845  0.62862318    -0.05150
C518        C  0.89235827  0.72949592  0.64246304     0.07070
C519        C  0.89001687  0.72059771  0.66405367     0.00870
H520        H  0.89918231  0.71143956  0.61027885     0.08520
H521        H  0.88484391  0.72954532  0.67925915     0.07600
N522        N  0.89777251  0.62480676  0.62515019    -0.36240
N523        N  0.89532686  0.60934823  0.64126318    -0.28420
C524        C  0.89108158  0.58918841  0.63147901    -0.03660
C525        C  0.89098611  0.59208285  0.60811818     0.04950
C526        C  0.89548216  0.61481381  0.60472146     0.03040
H527        H  0.88850181  0.57355018  0.64070240     0.08150
H528        H  0.89648615  0.62355970  0.58857693     0.06980
N529        N  0.72432994  0.62790583  0.88368128    -0.27410
N530        N  0.72896580  0.64938940  0.87935375    -0.35260
C531        C  0.75140639  0.65166411  0.87550370     0.00930
C532        C  0.76152002  0.63074922  0.87796035     0.06960
C533        C  0.74391190  0.61599554  0.88310995    -0.06140
H534        H  0.75965701  0.66730058  0.87057754     0.07630
H535        H  0.74501765  0.59779750  0.88475371     0.08830
Cu536      Cu  0.70479572  0.67480933  0.87773220     0.44170
Cu537      Cu  0.69108664  0.61577090  0.88658390     0.41990
Cu538      Cu  0.64677309  0.65948430  0.88732483     0.43880
N539        N  0.67855536  0.69814187  0.87862481    -0.34790
N540        N  0.65721065  0.69270971  0.88329208    -0.29050
C541        C  0.64423243  0.71143902  0.88209507    -0.05150
C542        C  0.65816306  0.72937708  0.87622955     0.07070
C543        C  0.67973078  0.72037031  0.87398394     0.00870
H544        H  0.62589269  0.71169755  0.88394736     0.08520
H545        H  0.69502821  0.72918627  0.86874492     0.07600
N546        N  0.64037483  0.62507729  0.88518007    -0.36240
N547        N  0.65621646  0.60918626  0.88475273    -0.28420
C548        C  0.64603037  0.58896442  0.88179131    -0.03660
C549        C  0.62266795  0.59226762  0.88043092     0.04950
C550        C  0.61980960  0.61542631  0.88251960     0.03040
H551        H  0.65500091  0.57302966  0.88061027     0.08150
H552        H  0.60402608  0.62478119  0.88143345     0.06980
N553        N  0.72318257  0.86369610  0.64433016    -0.27410
N554        N  0.72862355  0.86091669  0.66597374    -0.35260
C555        C  0.75111419  0.85700043  0.66757416     0.00930
C556        C  0.76020648  0.85763289  0.64593146     0.06960
C557        C  0.74210903  0.86181197  0.63155280    -0.06140
H558        H  0.76004694  0.85334528  0.68324766     0.07630
H559        H  0.74247143  0.86241293  0.61315658     0.08830
Cu560      Cu  0.70503202  0.86144323  0.69213154     0.44170
Cu561      Cu  0.68993305  0.86738284  0.63331963     0.41990
Cu562      Cu  0.64652902  0.87349825  0.67738009     0.43880
N563        N  0.67887270  0.86337616  0.71565612    -0.34790
N564        N  0.65763065  0.86881108  0.71054577    -0.29050
C565        C  0.64485513  0.86773248  0.72955673    -0.05150
C566        C  0.65878370  0.86116230  0.74730591     0.07070
C567        C  0.68013192  0.85836587  0.73790787     0.00870
H568        H  0.62658081  0.87005696  0.73009297     0.08520
H569        H  0.69530436  0.85238485  0.74644333     0.07600
N570        N  0.63953786  0.87109055  0.64286245    -0.36240
N571        N  0.65527217  0.86821199  0.62699658    -0.28420
C572        C  0.64501377  0.86527819  0.60676028    -0.03660
C573        C  0.62178063  0.86662766  0.61004854     0.04950
C574        C  0.61884375  0.87030917  0.63307451     0.03040
H575        H  0.65382108  0.86232111  0.59086295     0.08150
H576        H  0.60285995  0.87167500  0.64214331     0.06980
N577        N  0.16029122  0.61330684  0.21046738    -0.27410
N578        N  0.18005845  0.62357936  0.21370747    -0.35260
C579        C  0.18126717  0.63086915  0.23531253     0.00930
C580        C  0.16151884  0.62455414  0.24636341     0.06960
C581        C  0.14854789  0.61337995  0.23020339    -0.06140
H582        H  0.19550733  0.64009524  0.24245384     0.07630
H583        H  0.13148079  0.60676646  0.23233123     0.08830
Cu584      Cu  0.20494565  0.62682496  0.18899355     0.44170
Cu585      Cu  0.14972079  0.60247212  0.17842175     0.41990
Cu586      Cu  0.19299487  0.60512503  0.13330543     0.43880
N587        N  0.22925458  0.62447612  0.16361964    -0.34790
N588        N  0.22540598  0.61526653  0.14348117    -0.29050
C589        C  0.24492796  0.61550366  0.13137485    -0.05150
C590        C  0.26161944  0.62563408  0.14453366     0.07070
C591        C  0.25108973  0.63121864  0.16475637     0.00870
H592        H  0.24659234  0.60962527  0.11402146     0.08520
H593        H  0.25874109  0.63955354  0.17926318     0.07600
N594        N  0.15832603  0.60013855  0.12756516    -0.36240
N595        N  0.14276495  0.59895380  0.14381177    -0.28420
C596        C  0.12203185  0.59721121  0.13417154    -0.03660
C597        C  0.12451485  0.59755471  0.11066317     0.04950
C598        C  0.14785206  0.59923609  0.10721774     0.03040
H599        H  0.10635116  0.59602601  0.14374558     0.08150
H600        H  0.15658056  0.60061760  0.09106096     0.06980
N601        N  0.22311392  0.85526636  0.38545743    -0.27410
N602        N  0.22829475  0.83394876  0.38114211    -0.35260
C603        C  0.25047066  0.83255516  0.37571258     0.00930
C604        C  0.25969519  0.85398737  0.37701275     0.06960
C605        C  0.24197865  0.86804999  0.38321414    -0.06140
H606        H  0.25908406  0.81718109  0.37065762     0.07630
H607        H  0.24245731  0.88628830  0.38473399     0.08830
Cu608      Cu  0.20465570  0.80808299  0.38162158     0.44170
Cu609      Cu  0.18991480  0.86571637  0.39066227     0.41990
Cu610      Cu  0.14611447  0.82157393  0.39521510     0.43880
N611        N  0.17885024  0.78438630  0.38322635    -0.34790
N612        N  0.15762313  0.78886359  0.38928106    -0.29050
C613        C  0.14516029  0.76977135  0.38755552    -0.05150
C614        C  0.15929129  0.75272268  0.37982254     0.07070
C615        C  0.18041879  0.76255833  0.37715439     0.00870
H616        H  0.12694502  0.76876571  0.39021510     0.08520
H617        H  0.19566568  0.75462634  0.37058080     0.07600
N618        N  0.13929294  0.85593050  0.39197848    -0.36240
N619        N  0.15519005  0.87165401  0.38985515    -0.28420
C620        C  0.14522089  0.89155259  0.38522812    -0.03660
C621        C  0.12183435  0.88838878  0.38427785     0.04950
C622        C  0.11874518  0.86553754  0.38894818     0.03040
H623        H  0.15450599  0.90702605  0.38190683     0.08150
H624        H  0.10285554  0.85632017  0.38980444     0.06980
N625        N  0.39982284  0.85485134  0.21030701    -0.27410
N626        N  0.39677956  0.83328063  0.21544063    -0.35260
C627        C  0.39202905  0.83147324  0.23773186     0.00930
C628        C  0.39245807  0.85288960  0.24705707     0.06960
C629        C  0.39736541  0.86736290  0.22927730    -0.06140
H630        H  0.38786542  0.81582032  0.24634079     0.07630
H631        H  0.39783735  0.88565653  0.22981133     0.08830
Cu632      Cu  0.39760756  0.80750617  0.19165498     0.44170
Cu633      Cu  0.40370823  0.86620711  0.17722788     0.41990
Cu634      Cu  0.40243617  0.82339455  0.13245745     0.43880
N635        N  0.39817815  0.78443507  0.16519762    -0.34790
N636        N  0.40015221  0.79007090  0.14350554    -0.29050
C637        C  0.39831352  0.77125363  0.13070669    -0.05150
C638        C  0.39517893  0.75303410  0.14511939     0.07070
C639        C  0.39498612  0.76197654  0.16679285     0.00870
H640        H  0.39806220  0.77102751  0.11230085     0.08520
H641        H  0.39170581  0.75298577  0.18249713     0.07600
N642        N  0.40159776  0.85804983  0.12652219    -0.36240
N643        N  0.40228189  0.87348323  0.14280399    -0.28420
C644        C  0.40024338  0.89413176  0.13345612    -0.03660
C645        C  0.39834803  0.89164458  0.11013260     0.04950
C646        C  0.39906673  0.86853448  0.10636153     0.03040
H647        H  0.39913535  0.90964580  0.14312820     0.08150
H648        H  0.39756222  0.85995709  0.09016646     0.06980
N649        N  0.38985407  0.69286098  0.13451488    -0.27410
N650        N  0.36819383  0.69872645  0.13607704    -0.35260
C651        C  0.36682743  0.72124707  0.13889097     0.00930
C652        C  0.38866206  0.72995632  0.13885587     0.06960
C653        C  0.40290220  0.71153878  0.13624867    -0.06140
H654        H  0.35116925  0.73045415  0.14177136     0.07630
H655        H  0.42132857  0.71155090  0.13679858     0.08830
Cu656      Cu  0.34174073  0.67554071  0.13627623     0.44170
Cu657      Cu  0.40010591  0.65937368  0.13303952     0.41990
Cu658      Cu  0.35527421  0.61620071  0.12894806     0.43880
N659        N  0.31755801  0.65002410  0.13554527    -0.34790
N660        N  0.32212828  0.62846918  0.13158410    -0.29050
C661        C  0.30258703  0.61650006  0.13280909    -0.05150
C662        C  0.28509160  0.63127784  0.13806781     0.07070
C663        C  0.29520349  0.65228562  0.13985715     0.00870
H664        H  0.30147262  0.59826646  0.13158427     0.08520
H665        H  0.28702712  0.66798879  0.14460635     0.07600
N666        N  0.38972723  0.60914259  0.13362541    -0.36240
N667        N  0.40570355  0.62484107  0.13539357    -0.28420
C668        C  0.42569488  0.61485755  0.14008902    -0.03660
C669        C  0.42232592  0.59168186  0.14149351     0.04950
C670        C  0.39925558  0.58871383  0.13706663     0.03040
H671        H  0.44145862  0.62396724  0.14280780     0.08150
H672        H  0.38994648  0.57293772  0.13631837     0.06980
N673        N  0.38650056  0.86610195  0.30694775    -0.27410
N674        N  0.36504432  0.86199683  0.30142857    -0.35260
C675        C  0.36384348  0.85744886  0.27906328     0.00930
C676        C  0.38550559  0.85908730  0.27010033     0.06960
C677        C  0.39951119  0.86452607  0.28815724    -0.06140
H678        H  0.34844565  0.85268774  0.27013581     0.07630
H679        H  0.41788495  0.86602213  0.28791204     0.08830
Cu680      Cu  0.33846277  0.86154117  0.32457060     0.44170
Cu681      Cu  0.39733855  0.87040651  0.34019161     0.41990
Cu682      Cu  0.35260392  0.87193563  0.38307942     0.43880
N683        N  0.31451109  0.86292591  0.35037515    -0.34790
N684        N  0.31953737  0.86780578  0.37174346    -0.29050
C685        C  0.30045346  0.86663016  0.38437854    -0.05150
C686        C  0.28270469  0.86058929  0.37022148     0.07070
C687        C  0.29217145  0.85818295  0.34886623     0.00870
H688        H  0.29984991  0.86855817  0.40267629     0.08520
H689        H  0.28362369  0.85266697  0.33352493     0.07600
N690        N  0.38697607  0.86978202  0.39041915    -0.36240
N691        N  0.40327171  0.86918845  0.37490506    -0.28420
C692        C  0.42341062  0.86616470  0.38535538    -0.03660
C693        C  0.41962736  0.86488935  0.40858353     0.04950
C694        C  0.39628572  0.86714666  0.41111698     0.03040
H695        H  0.43958998  0.86480563  0.37663839     0.08150
H696        H  0.38658993  0.86616141  0.42673751     0.06980
N697        N  0.14805466  0.62798785  0.30669253    -0.27410
N698        N  0.15311699  0.64933872  0.30214593    -0.35260
C699        C  0.15789135  0.65135950  0.27988802     0.00930
C700        C  0.15528704  0.63042919  0.26981353     0.06960
C701        C  0.14900368  0.61594320  0.28722681    -0.06140
H702        H  0.16332733  0.66686446  0.27172162     0.07630
H703        H  0.14676897  0.59780266  0.28611393     0.08830
Cu704      Cu  0.15401443  0.67504125  0.32610544     0.44170
Cu705      Cu  0.14382429  0.61595924  0.33973560     0.41990
Cu706      Cu  0.14282911  0.65997552  0.38355114     0.43880
N707        N  0.15167711  0.69861109  0.35207925    -0.34790
N708        N  0.14628560  0.69319321  0.37321430    -0.29050
C709        C  0.14671856  0.71195999  0.38618390    -0.05150
C710        C  0.15285252  0.72994663  0.37247919     0.07070
C711        C  0.15606809  0.72090051  0.35105046     0.00870
H712        H  0.14439180  0.71219108  0.40444600     0.08520
H713        H  0.16194535  0.72971631  0.33601247     0.07600
N714        N  0.14564669  0.62575431  0.39017004    -0.36240
N715        N  0.14582255  0.60965317  0.37455151    -0.28420
C716        C  0.14911192  0.58960585  0.38492946    -0.03660
C717        C  0.15095131  0.59329279  0.40816528     0.04950
C718        C  0.14894675  0.61647022  0.41074512     0.03040
H719        H  0.15028004  0.57353635  0.37619168     0.08150
H720        H  0.15076731  0.62619158  0.42619078     0.06980
N721        N  0.64432912  0.85380655  0.21002750    -0.27410
N722        N  0.64874873  0.83242042  0.21487532    -0.35260
C723        C  0.65404986  0.83069373  0.23703834     0.00930
C724        C  0.65252529  0.85194701  0.24660901     0.06960
C725        C  0.64635191  0.86626036  0.22909801    -0.06140
H726        H  0.65919605  0.81522015  0.24541348     0.07630
H727        H  0.64477277  0.88448189  0.22985100     0.08830
Cu728      Cu  0.64860419  0.80681207  0.19092010     0.44170
Cu729      Cu  0.63950316  0.86509967  0.17704469     0.41990
Cu730      Cu  0.63922914  0.82207979  0.13223942     0.43880
N731        N  0.64722669  0.78358276  0.16465351    -0.34790
N732        N  0.64295217  0.78887907  0.14321505    -0.29050
C733        C  0.64439078  0.77001601  0.13042457    -0.05150
C734        C  0.64993274  0.75216794  0.14457528     0.07070
C735        C  0.65177805  0.76136835  0.16606115     0.00870
H736        H  0.64305009  0.76962247  0.11206890     0.08520
H737        H  0.65695267  0.75273625  0.18144749     0.07600
N738        N  0.64123971  0.85669419  0.12632138    -0.36240
N739        N  0.64124150  0.87216879  0.14257206    -0.28420
C740        C  0.64444527  0.89266318  0.13319338    -0.03660
C741        C  0.64648600  0.89008152  0.10985739     0.04950
C742        C  0.64444969  0.86700094  0.10616088     0.03040
H743        H  0.64611055  0.90815039  0.14285264     0.08150
H744        H  0.64553940  0.85826599  0.09002142     0.06980
N745        N  0.88563733  0.78761314  0.38941894    -0.27410
N746        N  0.86432237  0.78294314  0.38380699    -0.35260
C747        C  0.86275377  0.76104424  0.37792946     0.00930
C748        C  0.88398581  0.75138522  0.38028312     0.06960
C749        C  0.89816314  0.76861474  0.38758228    -0.06140
H750        H  0.84743586  0.75294454  0.37169010     0.07630
H751        H  0.91642822  0.76777630  0.38990811     0.08830
Cu752      Cu  0.83846897  0.80659156  0.38257543     0.44170
Cu753      Cu  0.89711662  0.82039703  0.39508837     0.41990
Cu754      Cu  0.85372446  0.86465760  0.38962899     0.43880
N755        N  0.81494844  0.83254612  0.38208809    -0.34790
N756        N  0.82034548  0.85401832  0.38535161    -0.29050
C757        C  0.80145040  0.86672672  0.38315210    -0.05150
C758        C  0.78345694  0.85244625  0.37821877     0.07070
C759        C  0.79258875  0.83097268  0.37749621     0.00870
H760        H  0.80108578  0.88501386  0.38389785     0.08520
H761        H  0.78378918  0.81543365  0.37326227     0.07600
N762        N  0.88855950  0.87052724  0.38968171    -0.36240
N763        N  0.90426366  0.85472028  0.39217991    -0.28420
C764        C  0.92498308  0.86424179  0.38995325    -0.03660
C765        C  0.92226873  0.88717035  0.38546518     0.04950
C766        C  0.89885689  0.89042474  0.38562783     0.03040
H767        H  0.94071918  0.85488641  0.39128556     0.08150
H768        H  0.88979726  0.90597076  0.38217811     0.06980
N769        N  0.82047778  0.61571059  0.14323511    -0.27410
N770        N  0.81661300  0.62359440  0.16392520    -0.35260
C771        C  0.79466993  0.62973800  0.16568998     0.00930
C772        C  0.78407886  0.62518252  0.14526429     0.06960
C773        C  0.80084569  0.61628925  0.13132608    -0.06140
H774        H  0.78701699  0.63706119  0.18073095     0.07630
H775        H  0.79912394  0.61144122  0.11365870     0.08830
Cu776      Cu  0.84110340  0.62540268  0.18903531     0.44170
Cu777      Cu  0.85301412  0.60666058  0.13238229     0.41990
Cu778      Cu  0.89761226  0.60564721  0.17663482     0.43880
N779        N  0.86646785  0.62310268  0.21321639    -0.34790
N780        N  0.88701489  0.61484322  0.20925299    -0.29050
C781        C  0.89903966  0.61527533  0.22881855    -0.05150
C782        C  0.88533269  0.62447979  0.24561984     0.07070
C783        C  0.86493089  0.62934596  0.23511987     0.00870
H784        H  0.91665088  0.61015069  0.23046325     0.08520
H785        H  0.85004926  0.63696302  0.24281273     0.07600
N786        N  0.90361990  0.60132582  0.14187149    -0.36240
N787        N  0.88760680  0.60173044  0.12601851    -0.28420
C788        C  0.89750369  0.60000735  0.10541819    -0.03660
C789        C  0.92087824  0.59821335  0.10833074     0.04950
C790        C  0.92407152  0.59932293  0.13168566     0.03040
H791        H  0.88832754  0.60131221  0.08954300     0.08150
H792        H  0.94019012  0.59921447  0.14061439     0.06980
N793        N  0.72315756  0.62792784  0.13496517    -0.27410
N794        N  0.72806217  0.64960153  0.13765764    -0.35260
C795        C  0.75062731  0.65191645  0.14072000     0.00930
C796        C  0.76047095  0.63076306  0.13941402     0.06960
C797        C  0.74261532  0.61587622  0.13584145    -0.06140
H798        H  0.75915518  0.66776535  0.14429705     0.07630
H799        H  0.74351810  0.59759929  0.13537442     0.08830
Cu800      Cu  0.70384525  0.67502353  0.13795143     0.44170
Cu801      Cu  0.68982138  0.61610998  0.13347988     0.41990
Cu802      Cu  0.64562587  0.65941568  0.12699506     0.43880
N803        N  0.67747389  0.69814500  0.13591001    -0.34790
N804        N  0.65622488  0.69269140  0.13080754    -0.29050
C805        C  0.64322537  0.71143355  0.13179538    -0.05150
C806        C  0.65704445  0.72939391  0.13788303     0.07070
C807        C  0.67854629  0.72037239  0.14054190     0.00870
H808        H  0.62490420  0.71166409  0.12977713     0.08520
H809        H  0.69369536  0.72914957  0.14624489     0.07600
N810        N  0.63911826  0.62527124  0.13205059    -0.36240
N811        N  0.65500012  0.60979303  0.13521701    -0.28420
C812        C  0.64486629  0.59005260  0.14039418    -0.03660
C813        C  0.62133629  0.59302220  0.14049509     0.04950
C814        C  0.61851544  0.61571707  0.13485045     0.03040
H815        H  0.65413451  0.57473551  0.14427522     0.08150
H816        H  0.60294320  0.62504816  0.13274238     0.06980
N817        N  0.89551718  0.62719871  0.30649345    -0.27410
N818        N  0.89246333  0.64884512  0.30168106    -0.35260
C819        C  0.88954791  0.65116800  0.27913176     0.00930
C820        C  0.89132094  0.63008791  0.26918359     0.06960
C821        C  0.89501734  0.61521324  0.28698018    -0.06140
H822        H  0.88564114  0.66695872  0.27068239     0.07630
H823        H  0.89572025  0.59694755  0.28599863     0.08830
Cu824      Cu  0.89126158  0.67437382  0.32582651     0.44170
Cu825      Cu  0.89688373  0.61505549  0.33970338     0.41990
Cu826      Cu  0.90090441  0.65864710  0.38378228     0.43880
N827        N  0.89260116  0.69753683  0.35225889    -0.34790
N828        N  0.89735584  0.69193253  0.37350192    -0.29050
C829        C  0.89633064  0.71056193  0.38664341    -0.05150
C830        C  0.89050398  0.72863683  0.37294556     0.07070
C831        C  0.88807226  0.71979633  0.35133371     0.00870
H832        H  0.89815344  0.71064243  0.40496226     0.08520
H833        H  0.88269228  0.72873343  0.33619696     0.07600
N834        N  0.89729953  0.62440745  0.39028969    -0.36240
N835        N  0.89526238  0.60858521  0.37448500    -0.28420
C836        C  0.89164962  0.58851337  0.38473604    -0.03660
C837        C  0.89168525  0.59191677  0.40802747     0.04950
C838        C  0.89521029  0.61484450  0.41092113     0.03040
H839        H  0.88936744  0.57260784  0.37590768     0.08150
H840        H  0.89570098  0.62404684  0.42682181     0.06980
N841        N  0.72329502  0.86495287  0.37288720    -0.27410
N842        N  0.72870976  0.86106681  0.35139799    -0.35260
C843        C  0.75118244  0.85702276  0.34996427     0.00930
C844        C  0.76035307  0.85879337  0.37150085     0.06960
C845        C  0.74226772  0.86371785  0.38568975    -0.06140
H846        H  0.76003881  0.85237457  0.33450988     0.07630
H847        H  0.74263143  0.86501239  0.40404948     0.08830
Cu848      Cu  0.70527296  0.86004114  0.32511060     0.44170
Cu849      Cu  0.68997842  0.86865606  0.38393272     0.41990
Cu850      Cu  0.64667763  0.87038083  0.33947694     0.43880
N851        N  0.67926269  0.86088467  0.30135844    -0.34790
N852        N  0.65787811  0.86576590  0.30642153    -0.29050
C853        C  0.64517401  0.86444766  0.28740743    -0.05150
C854        C  0.65929556  0.85826423  0.26968551     0.07070
C855        C  0.68070834  0.85597443  0.27908507     0.00870
H856        H  0.62686830  0.86650183  0.28681904     0.08520
H857        H  0.69608223  0.85057027  0.27051014     0.07600
N858        N  0.63954491  0.86907641  0.37394636    -0.36240
N859        N  0.65520920  0.86830060  0.39010301    -0.28420
C860        C  0.64482539  0.86630874  0.41040948    -0.03660
C861        C  0.62154418  0.86610023  0.40685239     0.04950
C862        C  0.61880871  0.86761795  0.38353609     0.03040
H863        H  0.65357803  0.86500452  0.42655498     0.08150
H864        H  0.60292536  0.86732536  0.37419655     0.06980
N865        N  0.88618663  0.36807895  0.20896100    -0.27410
N866        N  0.86461783  0.36477246  0.21455973    -0.35260
C867        C  0.86335700  0.36003156  0.23689182     0.00930
C868        C  0.88515125  0.36055745  0.24567544     0.06960
C869        C  0.89925361  0.36563387  0.22759527    -0.06140
H870        H  0.84782603  0.35585107  0.24589185     0.07630
H871        H  0.91766480  0.36657305  0.22775222     0.08830
Cu872      Cu  0.83815618  0.36531418  0.19128079     0.44170
Cu873      Cu  0.89683774  0.37326424  0.17584997     0.41990
Cu874      Cu  0.85243741  0.37782503  0.13275595     0.43880
N875        N  0.81450839  0.36619082  0.16515853    -0.34790
N876        N  0.81945476  0.37165429  0.14389520    -0.29050
C877        C  0.80051428  0.36966634  0.13111836    -0.05150
C878        C  0.78298515  0.36246554  0.14505250     0.07070
C879        C  0.79242791  0.36028160  0.16643151     0.00870
H880        H  0.79990148  0.37194848  0.11286306     0.08520
H881        H  0.78406045  0.35416292  0.18164709     0.07600
N882        N  0.88706680  0.37720300  0.12561980    -0.36240
N883        N  0.90309551  0.37502358  0.14128077    -0.28420
C884        C  0.92343730  0.37298602  0.13098630    -0.03660
C885        C  0.92009135  0.37421236  0.10776797     0.04950
C886        C  0.89684644  0.37680591  0.10492554     0.03040
H887        H  0.93944582  0.37049710  0.13975541     0.08150
H888        H  0.88758411  0.37734314  0.08902865     0.06980
N889        N  0.88815114  0.19168238  0.37454151    -0.27410
N890        N  0.86711270  0.19774341  0.37984311    -0.35260
C891        C  0.86574871  0.22046279  0.37970603     0.00930
C892        C  0.88685705  0.22902550  0.37387305     0.06960
C893        C  0.90061348  0.21038909  0.37050977    -0.06140
H894        H  0.85023130  0.22997377  0.38233553     0.07630
H895        H  0.91821311  0.21039036  0.36502578     0.08830
Cu896      Cu  0.84040254  0.17503450  0.38381262     0.44170
Cu897      Cu  0.89883508  0.15828705  0.37219293     0.41990
Cu898      Cu  0.85526475  0.11596973  0.38165901     0.43880
N899        N  0.81652782  0.14914524  0.38234528    -0.34790
N900        N  0.82206023  0.12749022  0.38128397    -0.29050
C901        C  0.80311251  0.11513641  0.37785155    -0.05150
C902        C  0.78482603  0.12972961  0.37698278     0.07070
C903        C  0.79384352  0.15113990  0.37980406     0.00870
H904        H  0.80281587  0.09701190  0.37527399     0.08520
H905        H  0.78477688  0.16703835  0.37885886     0.07600
N906        N  0.88927602  0.10841927  0.37683757    -0.36240
N907        N  0.90512209  0.12372732  0.37243036    -0.28420
C908        C  0.92506603  0.11312432  0.36876684    -0.03660
C909        C  0.92153104  0.09007310  0.37107895     0.04950
C910        C  0.89870804  0.08773393  0.37637284     0.03040
H911        H  0.94100771  0.12159590  0.36512145     0.08150
H912        H  0.88953354  0.07210923  0.37930596     0.06980
N913        N  0.65244119  0.19059833  0.14216206    -0.27410
N914        N  0.65148895  0.19672833  0.16380466    -0.35260
C915        C  0.65373263  0.21932842  0.16519002     0.00930
C916        C  0.65615409  0.22777364  0.14343983     0.06960
C917        C  0.65542047  0.20917954  0.12923013    -0.06140
H918        H  0.65447647  0.22879693  0.18092915     0.07630
H919        H  0.65764534  0.20906032  0.11095508     0.08830
Cu920      Cu  0.64945713  0.17429503  0.19089286     0.44170
Cu921      Cu  0.65164644  0.15716091  0.13126516     0.41990
Cu922      Cu  0.65077930  0.11540028  0.17641439     0.43880
N923        N  0.64999745  0.14865101  0.21499499    -0.34790
N924        N  0.65045902  0.12695594  0.20955806    -0.29050
C925        C  0.65274856  0.11457311  0.22860319    -0.05150
C926        C  0.65356489  0.12918999  0.24687238     0.07070
C927        C  0.65196774  0.15066260  0.23771251     0.00870
H928        H  0.65483600  0.09639115  0.22899071     0.08520
H929        H  0.65335773  0.16656043  0.24673770     0.07600
N930        N  0.65308474  0.10740566  0.14229042    -0.36240
N931        N  0.65324021  0.12248583  0.12568954    -0.28420
C932        C  0.65535114  0.11158012  0.10570366    -0.03660
C933        C  0.65640424  0.08853959  0.10996218     0.04950
C934        C  0.65516379  0.08658762  0.13339064     0.03040
H935        H  0.65603178  0.11980392  0.08926848     0.08150
H936        H  0.65643121  0.07135112  0.14345216     0.06980
N937        N  0.65889106  0.28824913  0.13373114    -0.27410
N938        N  0.68082715  0.28316895  0.13409190    -0.35260
C939        C  0.68313441  0.26063973  0.13631575     0.00930
C940        C  0.66164389  0.25115152  0.13728959     0.06960
C941        C  0.64666049  0.26908335  0.13582293    -0.06140
H942        H  0.69923317  0.25195909  0.13827367     0.07630
H943        H  0.62829228  0.26837833  0.13723348     0.08830
Cu944      Cu  0.70659616  0.30721271  0.13400512     0.44170
Cu945      Cu  0.64672652  0.32116374  0.13285215     0.41990
Cu946      Cu  0.68960210  0.36548407  0.12777435     0.43880
N947        N  0.72930087  0.33412437  0.13429053    -0.34790
N948        N  0.72325406  0.35541903  0.13098756    -0.29050
C949        C  0.74174662  0.36875908  0.13311885    -0.05150
C950        C  0.76017895  0.35515248  0.13813937     0.07070
C951        C  0.75170773  0.33336555  0.13894697     0.00870
H952        H  0.74149392  0.38705356  0.13250378     0.08520
H953        H  0.76098039  0.31816951  0.14333077     0.07600
N954        N  0.65503836  0.37152562  0.13168759    -0.36240
N955        N  0.63948012  0.35547980  0.13408116    -0.28420
C956        C  0.61911350  0.36517097  0.13799645    -0.03660
C957        C  0.62209211  0.38838982  0.13822447     0.04950
C958        C  0.64497533  0.39182004  0.13387020     0.03040
H959        H  0.60333350  0.35600893  0.14048218     0.08150
H960        H  0.65375070  0.40789834  0.13279543     0.06980
N961        N  0.72400474  0.12047856  0.37252606    -0.27410
N962        N  0.72996012  0.11893882  0.35088547    -0.35260
C963        C  0.75272607  0.12106375  0.34925987     0.00930
C964        C  0.76134270  0.12410659  0.37091488     0.06960
C965        C  0.74274533  0.12379566  0.38524857    -0.06140
H966        H  0.76215212  0.12143259  0.33343906     0.07630
H967        H  0.74272823  0.12648332  0.40345843     0.08830
Cu968      Cu  0.70650104  0.11674326  0.32459107     0.44170
Cu969      Cu  0.69059773  0.11978613  0.38351806     0.41990
Cu970      Cu  0.64661216  0.11502096  0.34056063     0.43880
N971        N  0.67979598  0.11820653  0.30153342    -0.34790
N972        N  0.65800430  0.11758780  0.30729598    -0.29050
C973        C  0.64521366  0.12078729  0.28857177    -0.05150
C974        C  0.65969683  0.12341694  0.27026454     0.07070
C975        C  0.68144174  0.12175175  0.27899903     0.00870
H976        H  0.62681487  0.12189679  0.28845389     0.08520
H977        H  0.69729151  0.12381675  0.26981809     0.07600
N978        N  0.64003845  0.11760512  0.37508849    -0.36240
N979        N  0.65614106  0.11983645  0.39062108    -0.28420
C980        C  0.64642643  0.12289923  0.41106971    -0.03660
C981        C  0.62296573  0.12236131  0.40842046     0.04950
C982        C  0.61959631  0.11904849  0.38529565     0.03040
H983        H  0.65591233  0.12609224  0.42650239     0.08150
H984        H  0.60347701  0.11804977  0.37643055     0.06980
N985        N  0.89481152  0.28987454  0.37101929    -0.27410
N986        N  0.89719489  0.28433096  0.34933858    -0.35260
C987        C  0.89588762  0.26170381  0.34729066     0.00930
C988        C  0.89228151  0.25265253  0.36864055     0.06960
C989        C  0.89148190  0.27091702  0.38328011    -0.06140
H990        H  0.89620648  0.25264040  0.33129828     0.07630
H991        H  0.88817432  0.27051955  0.40138749     0.08830
Cu992      Cu  0.89888008  0.30770308  0.32308455     0.44170
Cu993      Cu  0.89495047  0.32302020  0.38274631     0.41990
Cu994      Cu  0.89840992  0.36643116  0.33917721     0.43880
N995        N  0.89706787  0.33405032  0.29987176    -0.34790
N996        N  0.89733425  0.35563061  0.30579041    -0.29050
C997        C  0.89427481  0.36846723  0.28715297    -0.05150
C998        C  0.89199816  0.35423179  0.26870108     0.07070
C999        C  0.89365604  0.33256017  0.27730042     0.00870
H1000       H  0.89257536  0.38669370  0.28724317     0.08520
H1001       H  0.89155181  0.31688342  0.26802435     0.07600
N1002       N  0.89567492  0.37320829  0.37353813    -0.36240
N1003       N  0.89452474  0.35750128  0.38951473    -0.28420
C1004       C  0.89238998  0.36766516  0.40988573    -0.03660
C1005       C  0.89238241  0.39086308  0.40654272     0.04950
C1006       C  0.89414884  0.39371756  0.38325034     0.03040
H1007       H  0.89089509  0.35882415  0.42593938     0.08150
H1008       H  0.89406765  0.40953863  0.37398307     0.06980
N1009       N  0.15742689  0.37393779  0.21015572    -0.27410
N1010       N  0.17852419  0.36757506  0.21478255    -0.35260
C1011       C  0.17981753  0.36144125  0.23674545     0.00930
C1012       C  0.15864570  0.36438458  0.24646102     0.06960
C1013       C  0.14478654  0.37230024  0.22921964    -0.06140
H1014       H  0.19490306  0.35471403  0.24486040     0.07630
H1015       H  0.12662920  0.37531352  0.23010085     0.08830
Cu1016     Cu  0.20451811  0.36603643  0.19105892     0.44170
Cu1017     Cu  0.14618353  0.38072593  0.17737706     0.41990
Cu1018     Cu  0.19008367  0.37815490  0.13337153     0.43880
N1019       N  0.22819509  0.36643497  0.16499033    -0.34790
N1020       N  0.22311214  0.37196189  0.14380656    -0.29050
C1021       C  0.24191921  0.37009405  0.13084341    -0.05150
C1022       C  0.25952594  0.36287445  0.14460257     0.07070
C1023       C  0.25027392  0.36056944  0.16606897     0.00870
H1024       H  0.24239530  0.37252171  0.11260221     0.08520
H1025       H  0.25879095  0.35452719  0.18121639     0.07600
N1026       N  0.15544552  0.37795429  0.12695181    -0.36240
N1027       N  0.13945886  0.37926000  0.14272755    -0.28420
C1028       C  0.11895357  0.37691778  0.13276978    -0.03660
C1029       C  0.12216760  0.37361832  0.10957988     0.04950
C1030       C  0.14558533  0.37457953  0.10663329     0.03040
H1031       H  0.10302377  0.37735469  0.14197182     0.08150
H1032       H  0.15495665  0.37210405  0.09098379     0.06980
N1033       N  0.38925590  0.19328309  0.14390276    -0.27410
N1034       N  0.39243213  0.19878284  0.16547752    -0.35260
C1035       C  0.39150309  0.22144376  0.16751113     0.00930
C1036       C  0.38758813  0.23049594  0.14619282     0.06960
C1037       C  0.38603537  0.21222980  0.13166112    -0.06140
H1038       H  0.39241221  0.23054561  0.18345843     0.07630
H1039       H  0.38207256  0.21260846  0.11368689     0.08830
Cu1040     Cu  0.39514686  0.17495873  0.19130657     0.44170
Cu1041     Cu  0.38778289  0.16025603  0.13240333     0.41990
Cu1042     Cu  0.39301610  0.11566986  0.17422059     0.43880
N1043       N  0.39419228  0.14801419  0.21398636    -0.34790
N1044       N  0.39332059  0.12649911  0.20779398    -0.29050
C1045       C  0.39056297  0.11357255  0.22644715    -0.05150
C1046       C  0.38991209  0.12761520  0.24519601     0.07070
C1047       C  0.39210922  0.14930441  0.23674269     0.00870
H1048       H  0.38813041  0.09542358  0.22624900     0.08520
H1049       H  0.39102949  0.16492508  0.24628002     0.07600
N1050       N  0.38894537  0.10979329  0.13966237    -0.36240
N1051       N  0.38668352  0.12617485  0.12453867    -0.28420
C1052       C  0.38348798  0.11704926  0.10385618    -0.03660
C1053       C  0.38403884  0.09371893  0.10593478     0.04950
C1054       C  0.38732081  0.08974665  0.12894156     0.03040
H1055       H  0.38034680  0.12685566  0.08868249     0.08150
H1056       H  0.38854059  0.07346245  0.13726298     0.06980
N1057       N  0.15536983  0.19310365  0.37661710    -0.27410
N1058       N  0.17712285  0.19884309  0.37789937    -0.35260
C1059       C  0.17894331  0.22145276  0.37596977     0.00930
C1060       C  0.15731030  0.23028282  0.37354731     0.06960
C1061       C  0.14276878  0.21190779  0.37385518    -0.06140
H1062       H  0.19487872  0.23066572  0.37541603     0.07630
H1063       H  0.12451099  0.21208361  0.37132492     0.08830
Cu1064     Cu  0.20345307  0.17554021  0.37998251     0.44170
Cu1065     Cu  0.14407338  0.15986160  0.37649181     0.41990
Cu1066     Cu  0.18742492  0.11627344  0.37879699     0.43880
N1067       N  0.22673109  0.14915816  0.37914616    -0.34790
N1068       N  0.22088105  0.12754108  0.37847760    -0.29050
C1069       C  0.23974993  0.11491999  0.37577363    -0.05150
C1070       C  0.25828648  0.12929202  0.37497113     0.07070
C1071       C  0.24949171  0.15084473  0.37704447     0.00870
H1072       H  0.23985043  0.09673964  0.37362098     0.08520
H1073       H  0.25879748  0.16662309  0.37591885     0.07600
N1074       N  0.15285206  0.10958322  0.37612507    -0.36240
N1075       N  0.13709496  0.12549642  0.37510191    -0.28420
C1076       C  0.11656328  0.11569427  0.37265850    -0.03660
C1077       C  0.11945041  0.09241365  0.37228609     0.04950
C1078       C  0.14274603  0.08922061  0.37440294     0.03040
H1079       H  0.10080352  0.12496606  0.37082205     0.08150
H1080       H  0.15172814  0.07325320  0.37477137     0.06980
N1081       N  0.38534707  0.11683640  0.30575017    -0.27410
N1082       N  0.36357711  0.11695469  0.29991301    -0.35260
C1083       C  0.36198680  0.11971903  0.27725428     0.00930
C1084       C  0.38375738  0.12134999  0.26849546     0.06960
C1085       C  0.39816849  0.11963541  0.28696690    -0.06140
H1086       H  0.34615532  0.12155703  0.26801394     0.07630
H1087       H  0.41652942  0.12129867  0.28691214     0.08830
Cu1088     Cu  0.33690491  0.11617157  0.32311166     0.44170
Cu1089     Cu  0.39658682  0.11565719  0.33915913     0.41990
Cu1090     Cu  0.35246420  0.11844595  0.38235636     0.43880
N1091       N  0.31333727  0.11829128  0.34936531    -0.34790
N1092       N  0.31908429  0.11935108  0.37109489    -0.29050
C1093       C  0.30022042  0.12260201  0.38368233    -0.05150
C1094       C  0.28177049  0.12336068  0.36915868     0.07070
C1095       C  0.29062319  0.12069274  0.34755175     0.00870
H1096       H  0.30006943  0.12502834  0.40192888     0.08520
H1097       H  0.28139148  0.12148772  0.33164040     0.07600
N1098       N  0.38698443  0.11999542  0.38932069    -0.36240
N1099       N  0.40310619  0.11884685  0.37366953    -0.28420
C1100       C  0.42351183  0.12147356  0.38373817    -0.03660
C1101       C  0.42007319  0.12465810  0.40687370     0.04950
C1102       C  0.39667222  0.12340843  0.40973348     0.03040
H1103       H  0.43957973  0.12103298  0.37475314     0.08150
H1104       H  0.38725901  0.12543484  0.42542862     0.06980
N1105       N  0.14583790  0.29051873  0.37063309    -0.27410
N1106       N  0.14814014  0.28564851  0.34878344    -0.35260
C1107       C  0.15167322  0.26329341  0.34649870     0.00930
C1108       C  0.15150274  0.25368918  0.36789585     0.06960
C1109       C  0.14790368  0.27135655  0.38284251    -0.06140
H1110       H  0.15499871  0.25481841  0.33052352     0.07630
H1111       H  0.14773673  0.27051269  0.40123143     0.08830
Cu1112     Cu  0.14840343  0.30968615  0.32311391     0.44170
Cu1113     Cu  0.14273810  0.32330238  0.38287983     0.41990
Cu1114     Cu  0.14335458  0.36786100  0.33997331     0.43880
N1115       N  0.14851295  0.33640927  0.30029431    -0.34790
N1116       N  0.14565733  0.35776249  0.30633965    -0.29050
C1117       C  0.14746893  0.37099751  0.28778438    -0.05150
C1118       C  0.15181414  0.35724479  0.26929887     0.07070
C1119       C  0.15258214  0.33549011  0.27781301     0.00870
H1120       H  0.14717653  0.38930032  0.28800625     0.08520
H1121       H  0.15661039  0.32021148  0.26851170     0.07600
N1122       N  0.14616874  0.37355806  0.37461874    -0.36240
N1123       N  0.14550733  0.35752799  0.39027134    -0.28420
C1124       C  0.14869672  0.36695451  0.41086344    -0.03660
C1125       C  0.15197344  0.39006261  0.40804398     0.04950
C1126       C  0.15001248  0.39353322  0.38479574     0.03040
H1127       H  0.14829997  0.35746924  0.42652922     0.08150
H1128       H  0.15174578  0.40941825  0.37580539     0.06980
N1129       N  0.38443963  0.29097333  0.13591467    -0.27410
N1130       N  0.36258080  0.28551524  0.13571669    -0.35260
C1131       C  0.36047355  0.26305020  0.13861904     0.00930
C1132       C  0.38201758  0.25403118  0.14089443     0.06960
C1133       C  0.39684747  0.27211921  0.13922183    -0.06140
H1134       H  0.34442754  0.25409413  0.13984663     0.07630
H1135       H  0.41521402  0.27169449  0.14072328     0.08830
Cu1136     Cu  0.33656152  0.30902259  0.13376556     0.44170
Cu1137     Cu  0.39602744  0.32400744  0.13288812     0.41990
Cu1138     Cu  0.35248461  0.36747511  0.12601729     0.43880
N1139       N  0.31345765  0.33543543  0.13353364    -0.34790
N1140       N  0.31908957  0.35677599  0.12973527    -0.29050
C1141       C  0.30040380  0.36977785  0.13186842    -0.05150
C1142       C  0.28231412  0.35589572  0.13746561     0.07070
C1143       C  0.29115349  0.33430993  0.13856119     0.00870
H1144       H  0.30032713  0.38806035  0.13092295     0.08520
H1145       H  0.28222800  0.31902780  0.14343708     0.07600
N1146       N  0.38702130  0.37416435  0.12877534    -0.36240
N1147       N  0.40279026  0.35843784  0.13144976    -0.28420
C1148       C  0.42311747  0.36854206  0.13433426    -0.03660
C1149       C  0.42005728  0.39176371  0.13339213     0.04950
C1150       C  0.39689764  0.39466732  0.12992022     0.03040
H1151       H  0.43892601  0.35959967  0.13721606     0.08150
H1152       H  0.38766712  0.41047508  0.12922715     0.06980
O1153       O  0.49928491  0.51667004  0.13140129    -0.73060
O1154       O  0.54573884  0.46785614  0.12740564    -0.74040
O1155       O  0.49775963  0.46900577  0.12752065    -0.62660
O1156       O  0.54717509  0.51533914  0.13147368    -0.71070
O1157       O  0.54664446  0.51321936  0.16922359    -0.70620
O1158       O  0.49791768  0.46522381  0.16509541    -0.61880
O1159       O  0.54645140  0.46483592  0.16492603    -0.74390
O1160       O  0.49798107  0.51337337  0.16903243    -0.73160
Cu1161     Cu  0.52246844  0.49231277  0.12822731     1.04560
Cu1162     Cu  0.52224855  0.48903935  0.16847879     1.04330
C1163       C  0.49135992  0.52285030  0.15062021     0.93140
C1164       C  0.55369455  0.45865073  0.14532174     0.92280
C1165       C  0.49029905  0.45948367  0.14555277     0.84420
C1166       C  0.55455498  0.52173377  0.15085055     0.90690
O1167       O  0.14372696  0.46804798  0.48264254    -0.73060
O1168       O  0.14250449  0.51490791  0.53141458    -0.74040
O1169       O  0.14328894  0.51544249  0.48359799    -0.62660
O1170       O  0.14280252  0.46695207  0.53048777    -0.71070
O1171       O  0.18058664  0.46768276  0.53241991    -0.70620
O1172       O  0.18110826  0.51563833  0.48332107    -0.61880
O1173       O  0.18032697  0.51595431  0.53195822    -0.74390
O1174       O  0.18156068  0.46728809  0.48376588    -0.73160
Cu1175     Cu  0.14185316  0.49129639  0.50707793     1.04560
Cu1176     Cu  0.18231866  0.49162652  0.50792433     1.04330
C1177       C  0.16269214  0.46043566  0.47532808     0.93140
C1178       C  0.16108142  0.52330469  0.53896054     0.92280
C1179       C  0.16206909  0.52304372  0.47576736     0.84420
C1180       C  0.16141446  0.45962009  0.53890370     0.90690
O1181       O  0.54504024  0.11293399  0.53080410    -0.73060
O1182       O  0.49565718  0.11455129  0.48433058    -0.74040
O1183       O  0.54391483  0.11367814  0.48298832    -0.62660
O1184       O  0.49731425  0.11373161  0.53224646    -0.71070
O1185       O  0.49717740  0.15133866  0.53241415    -0.70620
O1186       O  0.54507712  0.15127888  0.48338304    -0.61880
O1187       O  0.49666662  0.15215052  0.48394222    -0.74390
O1188       O  0.54571355  0.15039113  0.53192014    -0.73160
Cu1189     Cu  0.52044141  0.11248002  0.50750326     1.04560
Cu1190     Cu  0.52118414  0.15268290  0.50791001     1.04330
C1191       C  0.55311615  0.13128153  0.53897348     0.93140
C1192       C  0.48826974  0.13346005  0.47690502     0.92280
C1193       C  0.55201797  0.13231814  0.47559734     0.84420
C1194       C  0.49007170  0.13243430  0.54027431     0.90690
O1195       O  0.86397936  0.51465254  0.53286997    -0.73060
O1196       O  0.86294353  0.46664343  0.48379341    -0.74040
O1197       O  0.86349559  0.46617206  0.53240216    -0.62660
O1198       O  0.86348389  0.51504405  0.48415721    -0.71070
O1199       O  0.90124582  0.51440919  0.48431967    -0.70620
O1200       O  0.90123689  0.46621990  0.53146626    -0.61880
O1201       O  0.90074476  0.46683843  0.48380880    -0.74390
O1202       O  0.90175974  0.51408459  0.53195244    -0.73160
Cu1203     Cu  0.86204430  0.49063524  0.50835091     1.04560
Cu1204     Cu  0.90244279  0.49036161  0.50790996     1.04330
C1205       C  0.88321998  0.52220377  0.53978425     0.93140
C1206       C  0.88191522  0.45912395  0.47621055     0.92280
C1207       C  0.88257589  0.45831550  0.53932044     0.84420
C1208       C  0.88258509  0.52245036  0.47669347     0.90690
O1209       O  0.49737593  0.83649365  0.48453634    -0.73060
O1210       O  0.54580854  0.83842252  0.53318003    -0.74040
O1211       O  0.49720014  0.83762913  0.53314688    -0.62660
O1212       O  0.54598151  0.83734295  0.48462891    -0.71070
O1213       O  0.54458133  0.87482588  0.48388533    -0.70620
O1214       O  0.49695292  0.87515311  0.53194870    -0.61880
O1215       O  0.54499995  0.87585627  0.53189388    -0.74390
O1216       O  0.49680159  0.87407291  0.48434172    -0.73160
Cu1217     Cu  0.52163694  0.83606602  0.50892404     1.04560
Cu1218     Cu  0.52086778  0.87618851  0.50801788     1.04330
C1219       C  0.48951445  0.85515852  0.47683464     0.93140
C1220       C  0.55308657  0.85759165  0.54020931     0.92280
C1221       C  0.48919243  0.85660349  0.53990608     0.84420
C1222       C  0.55274921  0.85624487  0.47644441     0.90690
O1223       O  0.49834537  0.51549829  0.84887431    -0.73060
O1224       O  0.54674899  0.46697179  0.84962844    -0.74040
O1225       O  0.49809205  0.46735507  0.84854468    -0.62660
O1226       O  0.54717322  0.51527928  0.84983354    -0.71070
O1227       O  0.54564149  0.51514148  0.88758785    -0.70620
O1228       O  0.49806094  0.46691881  0.88636540    -0.61880
O1229       O  0.54579812  0.46724401  0.88736807    -0.74390
O1230       O  0.49746612  0.51446469  0.88663575    -0.73160
Cu1231     Cu  0.52266309  0.49133206  0.84781012     1.04560
Cu1232     Cu  0.52176779  0.49100182  0.88822319     1.04330
C1233       C  0.48984546  0.52206444  0.86779888     0.93140
C1234       C  0.55355163  0.45919068  0.86877618     0.92280
C1235       C  0.49049536  0.45961214  0.86739935     0.84420
C1236       C  0.55412452  0.52267916  0.86907039     0.90690
O1237       O  0.04573615  0.01159130  0.34856976    -0.73060
O1238       O  0.99737107  0.96316234  0.35178937    -0.74040
O1239       O  0.99707180  0.01153212  0.34948067    -0.62660
O1240       O  0.04577208  0.96337687  0.35103121    -0.71070
O1241       O  0.04680722  0.96656541  0.38869699    -0.70620
O1242       O  0.99711339  0.01235960  0.38721682    -0.61880
O1243       O  0.99857718  0.96491306  0.38955577    -0.74390
O1244       O  0.04498205  0.01426877  0.38626399    -0.73160
Cu1245     Cu  0.02147375  0.98734376  0.34881245     1.04560
Cu1246     Cu  0.02193137  0.98955207  0.38918211     1.04330
C1247       C  0.05270231  0.02072188  0.36702379     0.93140
C1248       C  0.99042044  0.95651297  0.37128709     0.92280
C1249       C  0.98923814  0.01931593  0.36824584     0.84420
C1250       C  0.05404219  0.95765266  0.37029729     0.90690
O1251       O  0.04633170  0.01473864  0.63080851    -0.73060
O1252       O  0.99880675  0.96656186  0.62778511    -0.74040
O1253       O  0.99848862  0.01399161  0.63028028    -0.62660
O1254       O  0.04683432  0.96696490  0.62837207    -0.71070
O1255       O  0.04660384  0.96411885  0.66599297    -0.70620
O1256       O  0.99815402  0.01269731  0.66798060    -0.61880
O1257       O  0.99817752  0.96428946  0.66552694    -0.74390
O1258       O  0.04684726  0.01248981  0.66854781    -0.73160
Cu1259     Cu  0.02267428  0.99061740  0.62808920     1.04560
Cu1260     Cu  0.02244708  0.98834508  0.66842859     1.04330
C1261       C  0.05404225  0.02128169  0.65000176     0.93140
C1262       C  0.99097424  0.95785150  0.64604109     0.92280
C1263       C  0.99061541  0.02090478  0.64928098     0.84420
C1264       C  0.05433902  0.95793376  0.64662494     0.90690
O1265       O  0.36192796  0.01282931  0.98389570    -0.73060
O1266       O  0.36629656  0.96439414  0.03209892    -0.74040
O1267       O  0.36181554  0.01246396  0.03247979    -0.62660
O1268       O  0.36657656  0.96461873  0.98357224    -0.71070
O1269       O  0.40421699  0.96783100  0.98468381    -0.70620
O1270       O  0.39938931  0.01670566  0.03094460    -0.61880
O1271       O  0.40378571  0.96916040  0.03282764    -0.74390
O1272       O  0.39970127  0.01493967  0.98315693    -0.73160
Cu1273     Cu  0.36274541  0.98842156  0.00802303     1.04560
Cu1274     Cu  0.40300180  0.99224085  0.00796309     1.04330
C1275       C  0.38029489  0.02121896  0.97572413     0.93140
C1276       C  0.38585069  0.95932103  0.04019700     0.92280
C1277       C  0.38005377  0.02238092  0.03903556     0.84420
C1278       C  0.38630470  0.95885758  0.97632219     0.90690
O1279       O  0.04580836  0.34504811  0.98357674    -0.73060
O1280       O  0.99754810  0.34663780  0.03245637    -0.74040
O1281       O  0.99722327  0.34675546  0.98393396    -0.62660
O1282       O  0.04599069  0.34489741  0.03216639    -0.71070
O1283       O  0.04781131  0.38245625  0.03109218    -0.70620
O1284       O  0.99819631  0.38423386  0.98496277    -0.61880
O1285       O  0.99965598  0.38411306  0.03262719    -0.74390
O1286       O  0.04602924  0.38263692  0.98318809    -0.73160
Cu1287     Cu  0.02161606  0.34443478  0.00804332     1.04560
Cu1288     Cu  0.02300699  0.38459000  0.00800656     1.04330
C1289       C  0.05312405  0.36376251  0.97542408     0.93140
C1290       C  0.99094449  0.36577899  0.04015885     0.92280
C1291       C  0.98986069  0.36591279  0.97701137     0.84420
C1292       C  0.05467716  0.36354290  0.03896490     0.90690
O1293       O  0.64200346  0.01304303  0.98406473    -0.73060
O1294       O  0.64116875  0.96601824  0.03268318    -0.74040
O1295       O  0.64281240  0.01339899  0.03227308    -0.62660
O1296       O  0.64027358  0.96542763  0.98482325    -0.71070
O1297       O  0.67807551  0.96420071  0.98348480    -0.70620
O1298       O  0.68064295  0.01269575  0.03181561    -0.61880
O1299       O  0.67896752  0.96428925  0.03209648    -0.74390
O1300       O  0.67978608  0.01242469  0.98337196    -0.73160
Cu1301     Cu  0.64033286  0.98954832  0.00846455     1.04560
Cu1302     Cu  0.68078179  0.98836262  0.00766756     1.04330
C1303       C  0.66085932  0.02008065  0.97586386     0.93140
C1304       C  0.65978229  0.95761431  0.03999948     0.92280
C1305       C  0.66193924  0.02050765  0.03973382     0.84420
C1306       C  0.65860958  0.95727707  0.97657027     0.90690
O1307       O  0.04918690  0.61630306  0.98447422    -0.73060
O1308       O  0.99956958  0.61656936  0.03178845    -0.74040
O1309       O  0.04785419  0.61600866  0.03287710    -0.62660
O1310       O  0.00067389  0.61689020  0.98309181    -0.71070
O1311       O  0.99877764  0.57937919  0.98415072    -0.70620
O1312       O  0.04859068  0.57848004  0.03125541    -0.61880
O1313       O  0.99995859  0.57902858  0.03244376    -0.74390
O1314       O  0.04735211  0.57886028  0.98279742    -0.73160
Cu1315     Cu  0.02431834  0.61775438  0.00804113     1.04560
Cu1316     Cu  0.02365681  0.57762371  0.00764460     1.04330
C1317       C  0.05602734  0.59756266  0.97606842     0.93140
C1318       C  0.99233217  0.59784581  0.03998119     0.92280
C1319       C  0.05584473  0.59708529  0.03967510     0.84420
C1320       C  0.99206931  0.59828407  0.97603267     0.90690
C1321       C  0.45584662  0.40516815  0.15171448    -0.26430
C1322       C  0.43767034  0.40946913  0.13678962    -0.14510
C1323       C  0.43690657  0.43030941  0.12505780     0.36120
C1324       C  0.45421194  0.44633959  0.12865752    -0.25880
C1325       C  0.47244903  0.44198253  0.14345047    -0.15120
C1326       C  0.47334682  0.42096777  0.15505218     0.37210
N1327       N  0.49216317  0.41436588  0.16923245    -0.89370
H1328       H  0.45668637  0.38918818  0.16071127     0.18320
H1329       H  0.45358351  0.46234342  0.11966482     0.18310
N1330       N  0.41897972  0.43493725  0.10906619    -0.88400
H1331       H  0.48645883  0.41420942  0.18608586     0.35690
H1332       H  0.50587145  0.42553346  0.16816704     0.40790
H1333       H  0.42065879  0.42348530  0.09561170     0.40410
H1334       H  0.42084420  0.45110807  0.10208166     0.35300
C1335       C  0.14667195  0.42945344  0.42142838    -0.26430
C1336       C  0.15593321  0.40790867  0.42546133    -0.14510
C1337       C  0.16954606  0.40466012  0.44515821     0.36120
C1338       C  0.17259894  0.42251138  0.46055370    -0.25880
C1339       C  0.16235961  0.44359166  0.45690216    -0.15120
C1340       C  0.14998272  0.44738891  0.43660863     0.37210
N1341       N  0.14072025  0.46916327  0.43068319    -0.89370
H1342       H  0.13661106  0.43249361  0.40628215     0.18320
H1343       H  0.18235687  0.41962190  0.47594141     0.18310
N1344       N  0.18087240  0.38376079  0.44992940    -0.88400
H1345       H  0.14800579  0.47399981  0.41518184     0.35690
H1346       H  0.14555275  0.48166880  0.44224317     0.40790
H1347       H  0.19015658  0.37880619  0.43559215     0.40410
H1348       H  0.16873477  0.37149821  0.45394352     0.35300
C1349       C  0.43264195  0.12067420  0.44709010    -0.26430
C1350       C  0.43732596  0.12838406  0.42496082    -0.14510
C1351       C  0.45816700  0.13960082  0.42072137     0.36120
C1352       C  0.47417401  0.14199133  0.43829205    -0.25880
C1353       C  0.46978926  0.13338862  0.46006429    -0.15120
C1354       C  0.44846365  0.12319190  0.46473601     0.37210
N1355       N  0.44220957  0.11525331  0.48705164    -0.89370
H1356       H  0.41664210  0.11226563  0.45074716     0.18320
H1357       H  0.49036867  0.15007880  0.43472071     0.18310
N1358       N  0.46310070  0.14887734  0.39875867    -0.88400
H1359       H  0.42777077  0.12428100  0.49214804     0.35690
H1360       H  0.45470357  0.11888855  0.49913388     0.40790
H1361       H  0.47813834  0.14147244  0.39281185     0.40410
H1362       H  0.46602124  0.16623050  0.40065884     0.35300
C1363       C  0.10713324  0.05432657  0.35868916    -0.26430
C1364       C  0.10171484  0.07459989  0.37001437    -0.14510
C1365       C  0.07971659  0.07723563  0.37948168     0.36120
C1366       C  0.06384785  0.05954409  0.37758439    -0.25880
C1367       C  0.06938644  0.03932775  0.36647673    -0.15120
C1368       C  0.09112391  0.03668779  0.35669992     0.37210
N1369       N  0.09720184  0.01577838  0.34578653    -0.89370
H1370       H  0.12392440  0.05222228  0.35134147     0.18320
H1371       H  0.04711681  0.06134745  0.38519247     0.18310
N1372       N  0.07375428  0.09744500  0.39170447    -0.88400
H1373       H  0.11418127  0.01622741  0.34040781     0.35690
H1374       H  0.08729870  0.01428166  0.33108553     0.40790
H1375       H  0.08390867  0.09810572  0.40630360     0.40410
H1376       H  0.05684721  0.09673917  0.39728429     0.35300
C1377       C  0.36839391  0.05706445  0.09215856    -0.26430
C1378       C  0.38165495  0.07644415  0.08781449    -0.14510
C1379       C  0.39357215  0.07806440  0.06692183     0.36120
C1380       C  0.39232791  0.06034551  0.05129099    -0.25880
C1381       C  0.37923612  0.04099602  0.05567774    -0.15120
C1382       C  0.36698144  0.03931391  0.07622952     0.37210
N1383       N  0.35385151  0.01935282  0.08116555    -0.89370
H1384       H  0.35933160  0.05566210  0.10816561     0.18320
H1385       H  0.40187445  0.06164110  0.03554083     0.18310
N1386       N  0.40800853  0.09684834  0.06144143    -0.88400
H1387       H  0.34590845  0.02081564  0.09702532     0.35690
H1388       H  0.36518319  0.00576951  0.08241057     0.40790
H1389       H  0.41964253  0.09931855  0.07467689     0.40410
H1390       H  0.39801206  0.11128000  0.05941258     0.35300
C1391       C  0.06745893  0.35719227  0.07839377    -0.26430
C1392       C  0.07284333  0.36360073  0.05610003    -0.14510
C1393       C  0.09482134  0.37206786  0.05113018     0.36120
C1394       C  0.11040729  0.37511076  0.06889016    -0.25880
C1395       C  0.10488209  0.36953088  0.09150095    -0.15120
C1396       C  0.08325344  0.35998371  0.09610679     0.37210
N1397       N  0.07721842  0.35283389  0.11858499    -0.89370
H1398       H  0.05065278  0.35054735  0.08220584     0.18320
H1399       H  0.12690448  0.38228493  0.06485614     0.18310
N1400       N  0.10193166  0.37782540  0.02839875    -0.88400
H1401       H  0.07318099  0.33560732  0.11799741     0.35690
H1402       H  0.06259094  0.36164958  0.12351674     0.40790
H1403       H  0.08937144  0.37414899  0.01639176     0.40410
H1404       H  0.11578587  0.36748924  0.02429976     0.35300
C1405       C  0.87312411  0.40559923  0.44099139    -0.26430
C1406       C  0.88975110  0.40866177  0.42405176    -0.14510
C1407       C  0.90324075  0.42858474  0.42429146     0.36120
C1408       C  0.89905681  0.44504972  0.44085343    -0.25880
C1409       C  0.88280064  0.44183598  0.45807053    -0.15120
C1410       C  0.86964915  0.42168868  0.45818613     0.37210
N1411       N  0.85366557  0.41618219  0.47589648    -0.89370
H1412       H  0.86289978  0.39030717  0.44109283     0.18320
H1413       H  0.90937999  0.46028888  0.44077102     0.18310
N1414       N  0.92191945  0.43242704  0.40885193    -0.88400
H1415       H  0.83732606  0.41661596  0.46882995     0.35690
H1416       H  0.85406458  0.42768280  0.48930714     0.40790
H1417       H  0.92589473  0.41796173  0.39957611     0.40410
H1418       H  0.93647260  0.43549540  0.41865256     0.35300
C1419       C  0.58414495  0.13516708  0.41974108    -0.26430
C1420       C  0.60518370  0.12569093  0.42608627    -0.14510
C1421       C  0.60865503  0.11926470  0.44901896     0.36120
C1422       C  0.59107446  0.12241123  0.46487539    -0.25880
C1423       C  0.57009088  0.13157771  0.45838761    -0.15120
C1424       C  0.56653975  0.13818158  0.43555602     0.37210
N1425       N  0.54518698  0.14708287  0.42756945    -0.89370
H1426       H  0.58123263  0.14026164  0.40228080     0.18320
H1427       H  0.59355324  0.11720592  0.48239460     0.18310
N1428       N  0.62961500  0.10885841  0.45607062    -0.88400
H1429       H  0.54810245  0.16363947  0.42200798     0.35690
H1430       H  0.53310191  0.14804917  0.44054306     0.40790
H1431       H  0.63073963  0.09319285  0.44788679     0.40410
H1432       H  0.62944872  0.10551810  0.47354413     0.35300
C1433       C  0.60237874  0.42191597  0.12332397    -0.26430
C1434       C  0.60451981  0.40603219  0.14083246    -0.14510
C1435       C  0.58992962  0.40746247  0.15999589     0.36120
C1436       C  0.57363275  0.42480459  0.16099939    -0.25880
C1437       C  0.57125328  0.44062898  0.14328462    -0.15120
C1438       C  0.58583000  0.43882820  0.12406795     0.37210
N1439       N  0.58454763  0.45389838  0.10502646    -0.89370
H1440       H  0.61344567  0.42088447  0.10857938     0.18320
H1441       H  0.56267902  0.42583496  0.17581379     0.18310
N1442       N  0.59165873  0.39239737  0.17912929    -0.88400
H1443       H  0.58636286  0.47050337  0.11078583     0.35690
H1444       H  0.56875057  0.45191787  0.09708349     0.40790
H1445       H  0.60541619  0.38136107  0.17768243     0.40410
H1446       H  0.57683986  0.38256668  0.17956266     0.35300
C1447       C  0.67418959  0.07308497  0.07485911    -0.26430
C1448       C  0.65872293  0.07023241  0.09292108    -0.14510
C1449       C  0.64488323  0.05060052  0.09350305     0.36120
C1450       C  0.64656093  0.03466049  0.07607652    -0.25880
C1451       C  0.66195868  0.03750148  0.05807642    -0.15120
C1452       C  0.67603714  0.05683245  0.05743644     0.37210
N1453       N  0.69157028  0.06021789  0.03881973    -0.89370
H1454       H  0.68472671  0.08814603  0.07425958     0.18320
H1455       H  0.63562397  0.01986167  0.07657380     0.18310
N1456       N  0.62818787  0.04678163  0.11087010    -0.88400
H1457       H  0.70065323  0.07530625  0.04093389     0.35690
H1458       H  0.68188336  0.06209610  0.02400834     0.40790
H1459       H  0.61757494  0.06092975  0.11195058     0.40410
H1460       H  0.63644193  0.04430426  0.12638010     0.35300
C1461       C  0.93863417  0.05494815  0.38623557    -0.26430
C1462       C  0.93852382  0.07175429  0.36944217    -0.14510
C1463       C  0.95448572  0.07077296  0.35149995     0.36120
C1464       C  0.97055936  0.05311035  0.35101031    -0.25880
C1465       C  0.97111464  0.03668549  0.36827280    -0.15120
C1466       C  0.95485940  0.03762388  0.38595321     0.37210
N1467       N  0.95461685  0.02092174  0.40362054    -0.89370
H1468       H  0.92633732  0.05552981  0.39998986     0.18320
H1469       H  0.98300623  0.05245602  0.33740549     0.18310
N1470       N  0.95417125  0.08754321  0.33378945    -0.88400
H1471       H  0.93857897  0.01319396  0.40368656     0.35690
H1472       H  0.95672455  0.02920391  0.41920044     0.40790
H1473       H  0.93872612  0.08588668  0.32507982     0.40410
H1474       H  0.96708478  0.08444504  0.32193651     0.35300
C1475       C  0.95190939  0.35278989  0.09026308    -0.26430
C1476       C  0.93759590  0.37178829  0.08995031    -0.14510
C1477       C  0.94080444  0.38864981  0.07332275     0.36120
C1478       C  0.95844036  0.38623333  0.05740113    -0.25880
C1479       C  0.97270638  0.36716059  0.05748766    -0.15120
C1480       C  0.96938938  0.35019133  0.07409043     0.37210
N1481       N  0.98399613  0.33069650  0.07479840    -0.89370
H1482       H  0.94942727  0.33996697  0.10321755     0.18320
H1483       H  0.96092105  0.39927542  0.04467245     0.18310
N1484       N  0.92682264  0.40860930  0.07324453    -0.88400
H1485       H  0.97908813  0.31977643  0.08792115     0.35690
H1486       H  0.00042344  0.33632531  0.07875954     0.40790
H1487       H  0.91045028  0.40378136  0.06823701     0.40410
H1488       H  0.93253230  0.42007930  0.06094479     0.35300
C1489       C  0.60521037  0.84572505  0.43985471    -0.26430
C1490       C  0.60353779  0.86364077  0.42422253    -0.14510
C1491       C  0.58474502  0.87860085  0.42553752     0.36120
C1492       C  0.56808475  0.87494061  0.44214007    -0.25880
C1493       C  0.56982336  0.85723311  0.45795415    -0.15120
C1494       C  0.58845430  0.84221779  0.45663567     0.37210
N1495       N  0.59080244  0.82406806  0.47274822    -0.89370
H1496       H  0.61960701  0.83430408  0.43883157     0.18320
H1497       H  0.55382175  0.88654789  0.44303757     0.18310
N1498       N  0.58226585  0.89812117  0.41108194    -0.88400
H1499       H  0.60620677  0.81555339  0.47024846     0.35690
H1500       H  0.57793300  0.81230165  0.46935144     0.40790
H1501       H  0.59648446  0.90070113  0.40080802     0.40410
H1502       H  0.58149765  0.91237801  0.42159353     0.35300
C1503       C  0.90328651  0.55437955  0.45885850    -0.26430
C1504       C  0.88372501  0.54064129  0.45934661    -0.14510
C1505       C  0.86645951  0.54409863  0.44294595     0.36120
C1506       C  0.86936120  0.56106107  0.42633291    -0.25880
C1507       C  0.88895262  0.57470813  0.42601627    -0.15120
C1508       C  0.90603835  0.57142262  0.44250379     0.37210
N1509       N  0.92659408  0.58469425  0.44199438    -0.89370
H1510       H  0.91657229  0.55186682  0.47140451     0.18320
H1511       H  0.85632845  0.56365294  0.41353978     0.18310
N1512       N  0.84636377  0.53016374  0.44286299    -0.88400
H1513       H  0.93820658  0.57883984  0.45412465     0.35690
H1514       H  0.92239053  0.60114729  0.44690789     0.40790
H1515       H  0.85142418  0.51364139  0.43902766     0.40410
H1516       H  0.83527156  0.53515982  0.42988626     0.35300
C1517       C  0.56578579  0.56174186  0.15577157    -0.26430
C1518       C  0.57219096  0.53937327  0.15157256    -0.14510
C1519       C  0.59477715  0.53460204  0.14524882     0.36120
C1520       C  0.61024677  0.55231678  0.14208486    -0.25880
C1521       C  0.60380129  0.57510941  0.14503039    -0.15120
C1522       C  0.58114994  0.57963441  0.15253575     0.37210
N1523       N  0.57292477  0.60194784  0.15705986    -0.89370
H1524       H  0.54837589  0.56544757  0.16068416     0.18320
H1525       H  0.62728382  0.54803292  0.13655156     0.18310
N1526       N  0.60235554  0.51186523  0.14165629    -0.88400
H1527       H  0.57088968  0.61050620  0.14167576     0.35690
H1528       H  0.58438436  0.61037418  0.16772268     0.40790
H1529       H  0.59935649  0.50263192  0.15654282     0.40410
H1530       H  0.59259901  0.50482904  0.12860325     0.35300
C1531       C  0.95570787  0.58368490  0.05539716    -0.26430
C1532       C  0.97473331  0.59786108  0.05806941    -0.14510
C1533       C  0.97627623  0.61164822  0.07779379     0.36120
C1534       C  0.95827299  0.61160097  0.09354727    -0.25880
C1535       C  0.93895093  0.59786388  0.09056965    -0.15120
C1536       C  0.93789515  0.58354336  0.07127986     0.37210
N1537       N  0.91944435  0.56806826  0.06769055    -0.89370
H1538       H  0.95451406  0.57278204  0.04060631     0.18320
H1539       H  0.95951813  0.62237152  0.10842380     0.18310
N1540       N  0.99592286  0.62536954  0.08287487    -0.88400
H1541       H  0.90452144  0.57722125  0.06493639     0.35690
H1542       H  0.91752760  0.55805039  0.08223003     0.40790
H1543       H  0.00905116  0.62287777  0.07121741     0.40410
H1544       H  0.00243428  0.61990220  0.09849562     0.35300
C1545       C  0.93449021  0.92757627  0.38456890    -0.26430
C1546       C  0.93997646  0.90470793  0.38085406    -0.14510
C1547       C  0.96192733  0.89935844  0.37246060     0.36120
C1548       C  0.97792313  0.91667977  0.36877027    -0.25880
C1549       C  0.97241948  0.93931754  0.37302600    -0.15120
C1550       C  0.95025041  0.94491487  0.38051760     0.37210
N1551       N  0.94309541  0.96789892  0.38424582    -0.89370
H1552       H  0.91782303  0.93220043  0.39092565     0.18320
H1553       H  0.99488098  0.91236591  0.36288102     0.18310
N1554       N  0.96807809  0.87651438  0.36726839    -0.88400
H1555       H  0.92956410  0.97115612  0.37315285     0.35690
H1556       H  0.95584144  0.97945051  0.37996409     0.40790
H1557       H  0.98237095  0.87230330  0.37699983     0.40410
H1558       H  0.97269473  0.87574117  0.35010212     0.35300
C1559       C  0.66426273  0.90266832  0.07343867    -0.26430
C1560       C  0.65091212  0.90789092  0.09259337    -0.14510
C1561       C  0.64156877  0.92981101  0.09465685     0.36120
C1562       C  0.64562694  0.94582127  0.07749236    -0.25880
C1563       C  0.65857874  0.94047286  0.05817911    -0.15120
C1564       C  0.66817495  0.91858513  0.05615641     0.37210
N1565       N  0.68079871  0.91137327  0.03647405    -0.89370
H1566       H  0.67152451  0.88591437  0.07167836     0.18320
H1567       H  0.63815999  0.96253411  0.07891946     0.18310
N1568       N  0.62730253  0.93555974  0.11368134    -0.88400
H1569       H  0.69757155  0.90835021  0.04161813     0.35690
H1570       H  0.68138014  0.92372299  0.02383354     0.40790
H1571       H  0.61257020  0.92564821  0.11260766     0.40410
H1572       H  0.62202989  0.95242479  0.11269709     0.35300
C1573       C  0.17023354  0.55836627  0.42194421    -0.26430
C1574       C  0.15482843  0.57608861  0.42611318    -0.14510
C1575       C  0.14243928  0.57616689  0.44676068     0.36120
C1576       C  0.14571284  0.55884063  0.46249984    -0.25880
C1577       C  0.16109576  0.54115686  0.45847767    -0.15120
C1578       C  0.17341181  0.54074243  0.43769948     0.37210
N1579       N  0.18839721  0.52251387  0.43144556    -0.89370
H1580       H  0.17960142  0.55795039  0.40605247     0.18320
H1581       H  0.13579396  0.55908573  0.47804702     0.18310
N1582       N  0.12549876  0.59283405  0.45186781    -0.88400
H1583       H  0.18191564  0.51517356  0.41660142     0.35690
H1584       H  0.18848569  0.50963922  0.44354041     0.40790
H1585       H  0.11397685  0.59377166  0.43834088     0.40410
H1586       H  0.13339467  0.60847367  0.45420955     0.35300
C1587       C  0.45598025  0.84776391  0.42199603    -0.26430
C1588       C  0.43687267  0.86132251  0.42662321    -0.14510
C1589       C  0.43488820  0.87180157  0.44811805     0.36120
C1590       C  0.45209487  0.86863187  0.46432366    -0.25880
C1591       C  0.47134533  0.85543791  0.45959059    -0.15120
C1592       C  0.47330657  0.84471751  0.43812976     0.37210
N1593       N  0.49297339  0.83179808  0.43150951    -0.89370
H1594       H  0.45766966  0.83967983  0.40553430     0.18320
H1595       H  0.45076746  0.87702396  0.48065535     0.18310
N1596       N  0.41592300  0.88632719  0.45318423    -0.88400
H1597       H  0.48777630  0.81500548  0.42935954     0.35690
H1598       H  0.50564516  0.83187605  0.44392214     0.40790
H1599       H  0.41705355  0.90039792  0.44245566     0.40410
H1600       H  0.41696563  0.89246492  0.46984054     0.35300
C1601       C  0.46270430  0.57893732  0.13977944    -0.26430
C1602       C  0.44005065  0.57423121  0.14600703    -0.14510
C1603       C  0.43492530  0.55307830  0.15616087     0.36120
C1604       C  0.45223807  0.53674950  0.15847622    -0.25880
C1605       C  0.47447087  0.54121696  0.15105792    -0.15120
C1606       C  0.47992662  0.56266844  0.14214922     0.37210
N1607       N  0.50301585  0.56795065  0.13580951    -0.89370
H1608       H  0.46695898  0.59512808  0.13227679     0.18320
H1609       H  0.44825628  0.52025250  0.16550007     0.18310
N1610       N  0.41231369  0.54822869  0.16419019    -0.88400
H1611       H  0.50440236  0.58487061  0.13078998     0.35690
H1612       H  0.50715728  0.55826496  0.12152888     0.40790
H1613       H  0.40885894  0.55937787  0.17756158     0.40410
H1614       H  0.41142750  0.53189712  0.17098201     0.35300
C1615       C  0.37728163  0.90683218  0.07683074    -0.26430
C1616       C  0.39474978  0.90955062  0.09293227    -0.14510
C1617       C  0.40899139  0.92881577  0.09166520     0.36120
C1618       C  0.40558301  0.94472382  0.07443508    -0.25880
C1619       C  0.38808144  0.94213523  0.05837102    -0.15120
C1620       C  0.37371139  0.92296969  0.05957913     0.37210
N1621       N  0.35599071  0.91964173  0.04302111    -0.89370
H1622       H  0.36643679  0.89199813  0.07768719     0.18320
H1623       H  0.41677608  0.95930999  0.07362495     0.18310
N1624       N  0.42767340  0.93225946  0.10696265    -0.88400
H1625       H  0.34690082  0.90479855  0.04645967     0.35690
H1626       H  0.36380819  0.91731276  0.02720243     0.40790
H1627       H  0.43811794  0.91795013  0.10659198     0.40410
H1628       H  0.42133126  0.93445587  0.12339766     0.35300
C1629       C  0.10966956  0.92873549  0.38379984    -0.26430
C1630       C  0.10443491  0.90596913  0.37907229    -0.14510
C1631       C  0.08293164  0.90066861  0.36944706     0.36120
C1632       C  0.06690849  0.91802496  0.36600616    -0.25880
C1633       C  0.07201357  0.94045932  0.37168533    -0.15120
C1634       C  0.09369878  0.94600894  0.38020099     0.37210
N1635       N  0.09953496  0.96921677  0.38479284    -0.89370
H1636       H  0.12609276  0.93312109  0.39092647     0.18320
H1637       H  0.05019062  0.91400083  0.35927542     0.18310
N1638       N  0.07743234  0.87786759  0.36296086    -0.88400
H1639       H  0.11652636  0.97054586  0.38997337     0.35690
H1640       H  0.08964667  0.97467521  0.39851843     0.40790
H1641       H  0.08837137  0.87334945  0.34967707     0.40410
H1642       H  0.06086861  0.87690741  0.35647660     0.35300
C1643       C  0.11158060  0.58817969  0.07122204    -0.26430
C1644       C  0.10646009  0.59721733  0.09278853    -0.14510
C1645       C  0.08450217  0.60632949  0.09652528     0.36120
C1646       C  0.06829462  0.60609034  0.07894633    -0.25880
C1647       C  0.07340053  0.59677073  0.05764457    -0.15120
C1648       C  0.09525469  0.58776165  0.05366080     0.37210
N1649       N  0.10105816  0.57904282  0.03156774    -0.89370
H1650       H  0.12834335  0.58122334  0.06805847     0.18320
H1651       H  0.05156502  0.61322778  0.08198729     0.18310
N1652       N  0.07869312  0.61652708  0.11783909    -0.88400
H1653       H  0.11811913  0.57398885  0.03114721     0.35690
H1654       H  0.09134331  0.56445836  0.02885202     0.40790
H1655       H  0.06450270  0.60802906  0.12441280     0.40410
H1656       H  0.07402005  0.63332123  0.11479551     0.35300
C1657       C  0.60136062  0.84344120  0.58140615    -0.26430
C1658       C  0.60394048  0.86418678  0.59265766    -0.14510
C1659       C  0.58999902  0.88258664  0.58676592     0.36120
C1660       C  0.57366313  0.87989973  0.56957420    -0.25880
C1661       C  0.57077303  0.85911037  0.55823794    -0.15120
C1662       C  0.58485538  0.84061380  0.56426927     0.37210
N1663       N  0.58265242  0.81919060  0.55288373    -0.89370
H1664       H  0.61232393  0.82942850  0.58601189     0.18320
H1665       H  0.56302283  0.89419277  0.56513047     0.18310
N1666       N  0.59303694  0.90415337  0.59769287    -0.88400
H1667       H  0.59387535  0.80732258  0.55982099     0.35690
H1668       H  0.58765648  0.82153741  0.53596839     0.40790
H1669       H  0.58812377  0.90236946  0.61468999     0.40410
H1670       H  0.58214195  0.91623315  0.59060976     0.35300
C1671       C  0.60958214  0.55580942  0.86338327    -0.26430
C1672       C  0.60474220  0.57483899  0.87688471    -0.14510
C1673       C  0.58303072  0.57671851  0.88712029     0.36120
C1674       C  0.56680125  0.55959829  0.88364128    -0.25880
C1675       C  0.57169791  0.54051849  0.87035238    -0.15120
C1676       C  0.59342960  0.53859055  0.86000741     0.37210
N1677       N  0.60026016  0.51908934  0.84706195    -0.89370
H1678       H  0.62618993  0.55415181  0.85550255     0.18320
H1679       H  0.55022769  0.56096767  0.89167811     0.18310
N1680       N  0.57770680  0.59557559  0.90161929    -0.88400
H1681       H  0.60259706  0.52425252  0.83020566     0.35690
H1682       H  0.58788522  0.50642698  0.84701606     0.40790
H1683       H  0.58826107  0.59454948  0.91590980     0.40410
H1684       H  0.56094843  0.59448314  0.90757181     0.35300
C1685       C  0.86861510  0.54153722  0.57468374    -0.26430
C1686       C  0.88437385  0.54067544  0.55672689    -0.14510
C1687       C  0.90154422  0.55734894  0.55530980     0.36120
C1688       C  0.90303542  0.57417847  0.57200472    -0.25880
C1689       C  0.88789038  0.57457826  0.59041623    -0.15120
C1690       C  0.87027961  0.55829883  0.59166813     0.37210
N1691       N  0.85406704  0.55900024  0.60998958    -0.89370
H1692       H  0.85529178  0.52886420  0.57570260     0.18320
H1693       H  0.91645429  0.58674531  0.57080384     0.18310
N1694       N  0.91735091  0.55745323  0.53671974    -0.88400
H1695       H  0.84225507  0.54582874  0.60843559     0.35690
H1696       H  0.84490060  0.57408222  0.60846859     0.40790
H1697       H  0.93382079  0.55635189  0.54340408     0.40410
H1698       H  0.91589751  0.57294760  0.52825878     0.35300
C1699       C  0.93650287  0.58844224  0.94442230    -0.26430
C1700       C  0.94093050  0.59895093  0.92339339    -0.14510
C1701       C  0.96229089  0.60954890  0.92004810     0.36120
C1702       C  0.97862395  0.60938533  0.93753169    -0.25880
C1703       C  0.97423677  0.59859298  0.95830068    -0.15120
C1704       C  0.95295088  0.58810194  0.96186930     0.37210
N1705       N  0.94803035  0.57743770  0.98331264    -0.89370
H1706       H  0.92019284  0.58030823  0.94722948     0.18320
H1707       H  0.99493846  0.61756386  0.93476914     0.18310
N1708       N  0.96734216  0.62105588  0.89920899    -0.88400
H1709       H  0.93162890  0.57050664  0.98322644     0.35690
H1710       H  0.94810223  0.59002869  0.99581682     0.40790
H1711       H  0.98193089  0.61371874  0.89216117     0.40410
H1712       H  0.97109172  0.63793345  0.90302598     0.35300
C1713       C  0.66279932  0.92382550  0.92145665    -0.26430
C1714       C  0.64860039  0.90530852  0.92647405    -0.14510
C1715       C  0.63855734  0.90372922  0.94825384     0.36120
C1716       C  0.64286572  0.92070236  0.96439112    -0.25880
C1717       C  0.65677730  0.93933456  0.95927224    -0.15120
C1718       C  0.66696708  0.94091652  0.93747995     0.37210
N1719       N  0.68050362  0.95998804  0.93045172    -0.89370
H1720       H  0.67056637  0.92521901  0.90478540     0.18320
H1721       H  0.63493946  0.91963021  0.98102629     0.18310
N1722       N  0.62341167  0.88537342  0.95371360    -0.88400
H1723       H  0.69716912  0.95428435  0.92793789     0.35690
H1724       H  0.68112981  0.97265783  0.94276565     0.40790
H1725       H  0.60904549  0.88690787  0.94331376     0.40410
H1726       H  0.61765916  0.88665848  0.97050516     0.35300
C1727       C  0.95950737  0.90172016  0.64637610    -0.26430
C1728       C  0.93864272  0.90794497  0.63640549    -0.14510
C1729       C  0.93508283  0.93086026  0.63037283     0.36120
C1730       C  0.95234154  0.94681579  0.63448531    -0.25880
C1731       C  0.97313187  0.94047793  0.64423620    -0.15120
C1732       C  0.97682097  0.91762128  0.65030271     0.37210
N1733       N  0.99808527  0.90967985  0.65947286    -0.89370
H1734       H  0.96253006  0.88427545  0.65112675     0.18320
H1735       H  0.94975773  0.96432319  0.62961463     0.18310
N1736       N  0.91435718  0.93782859  0.61941752    -0.88400
H1737       H  0.99494537  0.90381912  0.67596439     0.35690
H1738       H  0.01014431  0.92258926  0.66082436     0.40790
H1739       H  0.91380509  0.93002649  0.60346140     0.40410
H1740       H  0.91440135  0.95527535  0.61644833     0.35300
C1741       C  0.43710310  0.87546925  0.57284727    -0.26430
C1742       C  0.43725424  0.86046563  0.59129705    -0.14510
C1743       C  0.45386055  0.84306462  0.59212071     0.36120
C1744       C  0.47040354  0.84183383  0.57493335    -0.25880
C1745       C  0.47070626  0.85742338  0.55694139    -0.15120
C1746       C  0.45358156  0.87413695  0.55564527     0.37210
N1747       N  0.45288558  0.88961235  0.53677400    -0.89370
H1748       H  0.42425448  0.88860363  0.57206741     0.18320
H1749       H  0.48327137  0.82872461  0.57579345     0.18310
N1750       N  0.45404986  0.82589063  0.60944096    -0.88400
H1751       H  0.43936327  0.90097960  0.53852851     0.35690
H1752       H  0.44954991  0.88011988  0.52214370     0.40790
H1753       H  0.43962737  0.82654082  0.61977089     0.40410
H1754       H  0.46830037  0.82869517  0.61973491     0.35300
C1755       C  0.14350142  0.57680620  0.56990458    -0.26430
C1756       C  0.15554202  0.57470780  0.59039314    -0.14510
C1757       C  0.17071125  0.55637091  0.59326278     0.36120
C1758       C  0.17273576  0.54007377  0.57589133    -0.25880
C1759       C  0.16004242  0.54184892  0.55574181    -0.15120
C1760       C  0.14566163  0.56081932  0.55251876     0.37210
N1761       N  0.13362981  0.56498194  0.53162937    -0.89370
H1762       H  0.13214912  0.59102506  0.56733789     0.18320
H1763       H  0.18392921  0.52569180  0.57824782     0.18310
N1764       N  0.18417602  0.55448567  0.61359469    -0.88400
H1765       H  0.11628218  0.56234094  0.53469208     0.35690
H1766       H  0.13863622  0.55405401  0.51865514     0.40790
H1767       H  0.19528514  0.56832790  0.61401609     0.40410
H1768       H  0.19435671  0.53999185  0.61303323     0.35300
C1769       C  0.43589031  0.55291438  0.88477037    -0.26430
C1770       C  0.43829444  0.57327799  0.87277500    -0.14510
C1771       C  0.45665193  0.57583643  0.85739423     0.36120
C1772       C  0.47286617  0.55842254  0.85536418    -0.25880
C1773       C  0.47097521  0.53852204  0.86823440    -0.15120
C1774       C  0.45178636  0.53546040  0.88257081     0.37210
N1775       N  0.44740808  0.51474318  0.89465604    -0.89370
H1776       H  0.42160803  0.55056571  0.89622709     0.18320
H1777       H  0.48737287  0.56063464  0.84416075     0.18310
N1778       N  0.45871133  0.59596664  0.84381874    -0.88400
H1779       H  0.45037794  0.51773125  0.91193462     0.35690
H1780       H  0.45804409  0.50161260  0.88944461     0.40790
H1781       H  0.44467083  0.59651011  0.83288587     0.40410
H1782       H  0.47319739  0.59518407  0.83348755     0.35300
C1783       C  0.10980569  0.61049672  0.94207838    -0.26430
C1784       C  0.10690682  0.59644881  0.92300616    -0.14510
C1785       C  0.08741918  0.58233559  0.92190414     0.36120
C1786       C  0.07132405  0.58284532  0.93950469    -0.25880
C1787       C  0.07383393  0.59745206  0.95816435    -0.15120
C1788       C  0.09339701  0.61135581  0.95954794     0.37210
N1789       N  0.09701480  0.62562675  0.97903663    -0.89370
H1790       H  0.12480723  0.62114963  0.94318791     0.18320
H1791       H  0.05651846  0.57190846  0.93842707     0.18310
N1792       N  0.08386444  0.56667614  0.90364632    -0.88400
H1793       H  0.11306542  0.63329121  0.97824055     0.35690
H1794       H  0.08516740  0.63878068  0.97823702     0.40790
H1795       H  0.09831875  0.55647991  0.90206134     0.40410
H1796       H  0.08143201  0.57567331  0.88857855     0.35300
C1797       C  0.10717367  0.92074867  0.65312517    -0.26430
C1798       C  0.10407797  0.90574206  0.63485603    -0.14510
C1799       C  0.08422153  0.90757813  0.62130492     0.36120
C1800       C  0.06808459  0.92414203  0.62662060    -0.25880
C1801       C  0.07135297  0.93957119  0.64451003    -0.15120
C1802       C  0.09118233  0.93763006  0.65821189     0.37210
N1803       N  0.09645966  0.95279488  0.67660830    -0.89370
H1804       H  0.12236874  0.91945937  0.66353123     0.18320
H1805       H  0.05298488  0.92539534  0.61606066     0.18310
N1806       N  0.08010725  0.89375905  0.60154305    -0.88400
H1807       H  0.09636978  0.94337267  0.69166356     0.35690
H1808       H  0.08440430  0.96550440  0.67852572     0.40790
H1809       H  0.09397737  0.88352266  0.59762499     0.40410
H1810       H  0.07837183  0.90460029  0.58758741     0.35300
C1811       C  0.40908098  0.92626838  0.92557819    -0.26430
C1812       C  0.39389649  0.90802913  0.92451224    -0.14510
C1813       C  0.37551954  0.90685741  0.93998214     0.36120
C1814       C  0.37300441  0.92387787  0.95655412    -0.25880
C1815       C  0.38867135  0.94179436  0.95806083    -0.15120
C1816       C  0.40677994  0.94299322  0.94227441     0.37210
N1817       N  0.42277991  0.96131324  0.94292934    -0.89370
H1818       H  0.42312779  0.92731943  0.91363909     0.18320
H1819       H  0.35903407  0.92293562  0.96857874     0.18310
N1820       N  0.35939424  0.88857493  0.93863969    -0.88400
H1821       H  0.42251714  0.96939874  0.92710865     0.35690
H1822       H  0.43904701  0.95450611  0.94525386     0.40790
H1823       H  0.35095574  0.88993080  0.92303325     0.40410
H1824       H  0.34696462  0.89017431  0.95128578     0.35300
C1825       C  0.16983817  0.42507450  0.59271124    -0.26430
C1826       C  0.15472453  0.40699891  0.58884693    -0.14510
C1827       C  0.14243857  0.40615183  0.56815749     0.36120
C1828       C  0.14525027  0.42336381  0.55213404    -0.25880
C1829       C  0.16030876  0.44139170  0.55597723    -0.15120
C1830       C  0.17284826  0.44227649  0.57640912     0.37210
N1831       N  0.18797549  0.46092351  0.58081822    -0.89370
H1832       H  0.17919242  0.42584663  0.60858767     0.18320
H1833       H  0.13545895  0.42269991  0.53650397     0.18310
N1834       N  0.12618728  0.38870287  0.56330570    -0.88400
H1835       H  0.19588589  0.45899249  0.59663799     0.35690
H1836       H  0.17809031  0.47559505  0.58187108     0.40790
H1837       H  0.11445578  0.38783194  0.57666658     0.40410
H1838       H  0.13468735  0.37328123  0.56188449     0.35300
C1839       C  0.45212049  0.14211367  0.55548531    -0.26430
C1840       C  0.47336674  0.13188832  0.55886596    -0.14510
C1841       C  0.47760909  0.11983599  0.57922998     0.36120
C1842       C  0.46014245  0.11752675  0.59524284    -0.25880
C1843       C  0.43856141  0.12704987  0.59160519    -0.15120
C1844       C  0.43463791  0.13991395  0.57169946     0.37210
N1845       N  0.41309405  0.15087100  0.56809035    -0.89370
H1846       H  0.44901435  0.15141297  0.53989341     0.18320
H1847       H  0.46346516  0.10793633  0.61060014     0.18310
N1848       N  0.49948032  0.11023728  0.58457735    -0.88400
H1849       H  0.41299626  0.15946670  0.55253859     0.35690
H1850       H  0.41120280  0.16313561  0.58076973     0.40790
H1851       H  0.51194853  0.11464940  0.57272052     0.40410
H1852       H  0.49779315  0.09262840  0.58425937     0.35300
C1853       C  0.43397979  0.42855075  0.86581489    -0.26430
C1854       C  0.44024972  0.40746820  0.87500978    -0.14510
C1855       C  0.46343475  0.40345883  0.88023496     0.36120
C1856       C  0.47954656  0.42059494  0.87638351    -0.25880
C1857       C  0.47313409  0.44170027  0.86773492    -0.15120
C1858       C  0.45007384  0.44572879  0.86212537     0.37210
N1859       N  0.44215191  0.46715862  0.85364553    -0.89370
H1860       H  0.41634527  0.43187066  0.86156148     0.18320
H1861       H  0.49720798  0.41772420  0.88084182     0.18310
N1862       N  0.47052775  0.38244765  0.89028533    -0.88400
H1863       H  0.43559372  0.46444786  0.83733296     0.35690
H1864       H  0.45538213  0.47883150  0.85189605     0.40790
H1865       H  0.46316510  0.38146661  0.90645787     0.40410
H1866       H  0.48817883  0.38218793  0.89270064     0.35300
C1867       C  0.39528491  0.05496471  0.92316968    -0.26430
C1868       C  0.38145849  0.07413368  0.92577475    -0.14510
C1869       C  0.36571777  0.07490246  0.94404291     0.36120
C1870       C  0.36480821  0.05698623  0.95963950    -0.25880
C1871       C  0.37949054  0.03841641  0.95758314    -0.15120
C1872       C  0.39447089  0.03711111  0.93887442     0.37210
N1873       N  0.40865932  0.01753392  0.93584048    -0.89370
H1874       H  0.40703545  0.05405599  0.90897140     0.18320
H1875       H  0.35307425  0.05791886  0.97385462     0.18310
N1876       N  0.35005637  0.09324281  0.94689294    -0.88400
H1877       H  0.41872687  0.01920131  0.92125332     0.35690
H1878       H  0.39787238  0.00371695  0.93303182     0.40790
H1879       H  0.34096544  0.09538273  0.93175156     0.40410
H1880       H  0.35918483  0.10798784  0.95040141     0.35300
C1881       C  0.06442380  0.06067198  0.64164315    -0.26430
C1882       C  0.07100251  0.03961777  0.65036864    -0.14510
C1883       C  0.09379839  0.03628616  0.65739567     0.36120
C1884       C  0.10943257  0.05409452  0.65522035    -0.25880
C1885       C  0.10300500  0.07513170  0.64610493    -0.15120
C1886       C  0.08013629  0.07846031  0.63932072     0.37210
N1887       N  0.07305195  0.09950080  0.62932477    -0.89370
H1888       H  0.04697119  0.06305021  0.63609458     0.18320
H1889       H  0.12687601  0.05130886  0.66054138     0.18310
N1890       N  0.10202648  0.01493527  0.66571567    -0.88400
H1891       H  0.05563597  0.09920195  0.62558347     0.35690
H1892       H  0.08157014  0.10121069  0.61379030     0.40790
H1893       H  0.08931834  0.00262034  0.66564141     0.40410
H1894       H  0.10692785  0.01722041  0.68266119     0.35300
C1895       C  0.09067086  0.35250316  0.96007461    -0.26430
C1896       C  0.07002740  0.36396532  0.95692233    -0.14510
C1897       C  0.06676872  0.37706750  0.93701462     0.36120
C1898       C  0.08483679  0.37964502  0.92168502    -0.25880
C1899       C  0.10593318  0.36907403  0.92527272    -0.15120
C1900       C  0.10862003  0.35488425  0.94453943     0.37210
N1901       N  0.12899449  0.34221479  0.94858353    -0.89370
H1902       H  0.09314567  0.34220004  0.97513584     0.18320
H1903       H  0.08229745  0.39011192  0.90675667     0.18310
N1904       N  0.04541089  0.38775962  0.93159406    -0.88400
H1905       H  0.14228177  0.35338574  0.95216039     0.35690
H1906       H  0.13289233  0.33286838  0.93399354     0.40790
H1907       H  0.03262857  0.38335879  0.94310811     0.40410
H1908       H  0.03999341  0.38134019  0.91591707     0.35300
C1909       C  0.57356767  0.10927364  0.56861168    -0.26430
C1910       C  0.57085162  0.12990852  0.55695613    -0.14510
C1911       C  0.58506479  0.14841930  0.56271629     0.36120
C1912       C  0.60152712  0.14577883  0.57991229    -0.25880
C1913       C  0.60392739  0.12520737  0.59150853    -0.15120
C1914       C  0.58985860  0.10677212  0.58587458     0.37210
N1915       N  0.59270196  0.08536128  0.59714501    -0.89370
H1916       H  0.56279267  0.09497855  0.56439546     0.18320
H1917       H  0.61256983  0.15982278  0.58432879     0.18310
N1918       N  0.58301221  0.16967913  0.55101407    -0.88400
H1919       H  0.58173892  0.07322287  0.59021265     0.35690
H1920       H  0.58774382  0.08742128  0.61409474     0.40790
H1921       H  0.58796390  0.16705414  0.53412826     0.40410
H1922       H  0.59434123  0.18159332  0.55775376     0.35300
C1923       C  0.87061901  0.41996107  0.59014748    -0.26430
C1924       C  0.89001388  0.40608882  0.58982784    -0.14510
C1925       C  0.90643814  0.40897797  0.57243858     0.36120
C1926       C  0.90293181  0.42559924  0.55588753    -0.25880
C1927       C  0.88371143  0.43975020  0.55625836    -0.15120
C1928       C  0.86709760  0.43660710  0.57338231     0.37210
N1929       N  0.84716628  0.45068859  0.57421108    -0.89370
H1930       H  0.85807430  0.41765260  0.60349217     0.18320
H1931       H  0.91573227  0.42772031  0.54275213     0.18310
N1932       N  0.92716776  0.39602570  0.57128792    -0.88400
H1933       H  0.83749737  0.44707406  0.58871496     0.35690
H1934       H  0.83694798  0.44636663  0.56030527     0.40790
H1935       H  0.92886615  0.38497669  0.58498642     0.40410
H1936       H  0.94079702  0.40736830  0.57260895     0.35300
C1937       C  0.58598233  0.40706794  0.88792285    -0.26430
C1938       C  0.60391685  0.40651683  0.87221701    -0.14510
C1939       C  0.60463176  0.42272585  0.85443835     0.36120
C1940       C  0.58780130  0.43952020  0.85341330    -0.25880
C1941       C  0.57033235  0.44056768  0.86967520    -0.15120
C1942       C  0.56919430  0.42390203  0.88689578     0.37210
N1943       N  0.55094352  0.42404876  0.90322826    -0.89370
H1944       H  0.58535241  0.39454221  0.90138545     0.18320
H1945       H  0.58856684  0.45202906  0.83994330     0.18310
N1946       N  0.62155393  0.42231314  0.83674782    -0.88400
H1947       H  0.55276940  0.41079523  0.91486967     0.35690
H1948       H  0.53581030  0.42098576  0.89438630     0.40790
H1949       H  0.63185661  0.40798683  0.83764044     0.40410
H1950       H  0.63202797  0.43647627  0.83889031     0.35300
C1951       C  0.95191461  0.35490698  0.92561617    -0.26430
C1952       C  0.93788632  0.37412170  0.92609188    -0.14510
C1953       C  0.94071988  0.39028389  0.94363398     0.36120
C1954       C  0.95729592  0.38658760  0.96030008    -0.25880
C1955       C  0.97144946  0.36744476  0.95986250    -0.15120
C1956       C  0.96853814  0.35122594  0.94244284     0.37210
N1957       N  0.98283618  0.33152258  0.94139725    -0.89370
H1958       H  0.94968046  0.34256671  0.91215262     0.18320
H1959       H  0.95936068  0.39913554  0.97359984     0.18310
N1960       N  0.92775272  0.41091226  0.94483814    -0.88400
H1961       H  0.97947029  0.32221870  0.92663911     0.35690
H1962       H  0.97832899  0.32104820  0.95501041     0.40790
H1963       H  0.91693607  0.41284858  0.93093102     0.40410
H1964       H  0.93926193  0.42440616  0.94389354     0.35300
C1965       C  0.95239558  0.07062742  0.66514163    -0.26430
C1966       C  0.93841906  0.07189492  0.64582342    -0.14510
C1967       C  0.94140814  0.05631032  0.62794990     0.36120
C1968       C  0.95846702  0.03982273  0.62971548    -0.25880
C1969       C  0.97248965  0.03835328  0.64904910    -0.15120
C1970       C  0.96937209  0.05392067  0.66703772     0.37210
N1971       N  0.98368831  0.05309013  0.68686011    -0.89370
H1972       H  0.95006295  0.08277742  0.67875385     0.18320
H1973       H  0.96076593  0.02795728  0.61584988     0.18310
N1974       N  0.92784107  0.05788834  0.60763745    -0.88400
H1975       H  0.97890786  0.06553308  0.69856845     0.35690
H1976       H  0.00027689  0.05704260  0.68170114     0.40790
H1977       H  0.91123922  0.05305610  0.61182776     0.40410
H1978       H  0.93343483  0.04626872  0.59544387     0.35300
C1979       C  0.64498440  0.05349536  0.92302983    -0.26430
C1980       C  0.65986255  0.07202054  0.92460267    -0.14510
C1981       C  0.67597841  0.07279277  0.94244140     0.36120
C1982       C  0.67625171  0.05539382  0.95879257    -0.25880
C1983       C  0.66068011  0.03738127  0.95771984    -0.15120
C1984       C  0.64508616  0.03634415  0.93939051     0.37210
N1985       N  0.62950640  0.01785435  0.93660670    -0.89370
H1986       H  0.63274677  0.05258734  0.90925267     0.18320
H1987       H  0.68840542  0.05608462  0.97265808     0.18310
N1988       N  0.69217504  0.09101603  0.94372309    -0.88400
H1989       H  0.61807363  0.01773723  0.95022544     0.35690
H1990       H  0.63874878  0.00273844  0.93659861     0.40790
H1991       H  0.70266176  0.08996632  0.92937584     0.40410
H1992       H  0.70276458  0.08908161  0.95789238     0.35300
loop_ 
_geom_bond_atom_site_label_1 
_geom_bond_atom_site_label_2 
_geom_bond_distance 
_geom_bond_site_symmetry_2 
_ccdc_geom_bond_type 
N1            N2   1.323       .  A
N1            C5   1.346       .  A
N1           Cu9   2.075       .  S
N2            C3   1.345       .  A
N2           Cu8   2.077       .  S
C3            C4   1.381       .  A
C3            H6   1.082       .  S
C4            C5   1.381       .  A
C4           C76   1.464       .  S
C5            H7   1.082       .  S
Cu8          N11   2.077       .  S
Cu9          N19   2.075       .  S
Cu10         N12   2.070       .  S
Cu10         N18   2.070       .  S
N11          N12   1.323       .  A
N11          C15   1.346       .  A
N12          C13   1.345       .  A
C13          C14   1.380       .  A
C13          H16   1.082       .  S
C14          C15   1.381       .  A
C14         C134   1.464       .  S
C15          H17   1.082       .  S
N18          N19   1.322       .  A
N18          C22   1.344       .  A
N19          C20   1.345       .  A
C20          C21   1.385       .  A
C20          H23   1.082       .  S
C21          C22   1.384       .  A
C21        C1980   1.481       .  S
C22          H24   1.082       .  S
N25          N26   1.323       .  A
N25          C29   1.346       .  A
N25         Cu33   2.074       .  S
N26          C27   1.345       .  A
N26         Cu32   2.076       .  S
C27          C28   1.380       .  A
C27          H30   1.082       .  S
C28          C29   1.380       .  A
C28         C100   1.463       .  S
C29          H31   1.082       .  S
Cu32         N35   2.076       .  S
Cu33         N43   2.074       .  S
Cu34         N36   2.068       .  S
Cu34         N42   2.068       .  S
N35          N36   1.322       .  A
N35          C39   1.345       .  A
N36          C37   1.345       .  A
C37          C38   1.379       .  A
C37          H40   1.082       .  S
C38          C39   1.381       .  A
C38         C124   1.463       .  S
C39          H41   1.082       .  S
N42          N43   1.322       .  A
N42          C46   1.344       .  A
N43          C44   1.346       .  A
C44          C45   1.383       .  A
C44          H47   1.082       .  S
C45          C46   1.382       .  A
C45        C1966   1.474       .  S
C46          H48   1.082       .  S
N49          N50   1.322       .  A
N49          C53   1.346       .  A
N49         Cu57   2.070       .  S
N50          C51   1.344       .  A
N50         Cu56   2.070       .  S
C51          C52   1.379       .  A
C51          H54   1.082       .  S
C52          C53   1.380       .  A
C52          C86   1.461       .  S
C53          H55   1.082       .  S
Cu56         N59   2.070       .  S
Cu57         N67   2.070       .  S
Cu58         N60   2.069       .  S
Cu58         N66   2.069       .  S
N59          N60   1.322       .  A
N59          C63   1.344       .  A
N60          C61   1.345       .  A
C61          C62   1.380       .  A
C61          H64   1.082       .  S
C62          C63   1.380       .  A
C62         C110   1.461       .  S
C63          H65   1.082       .  S
N66          N67   1.323       .  A
N66          C70   1.344       .  A
N67          C68   1.344       .  A
C68          C69   1.382       .  A
C68          H71   1.082       .  S
C69          C70   1.381       .  A
C69        C1952   1.474       .  S
C70          H72   1.082       .  S
N73          N74   1.323       .  A
N73          C77   1.346       .  A
N73         Cu81   2.076       .  S
N74          C75   1.345       .  A
N74         Cu80   2.074       .  S
C75          C76   1.380       .  A
C75          H78   1.082       .  S
C76          C77   1.381       .  A
C77          H79   1.082       .  S
Cu80         N83   2.074       .  S
Cu81         N91   2.076       .  S
Cu82         N84   2.067       .  S
Cu82         N90   2.068       .  S
N83          N84   1.322       .  A
N83          C87   1.344       .  A
N84          C85   1.345       .  A
C85          C86   1.380       .  A
C85          H88   1.082       .  S
C86          C87   1.380       .  A
C87          H89   1.082       .  S
N90          N91   1.323       .  A
N90          C94   1.344       .  A
N91          C92   1.345       .  A
C92          C93   1.383       .  A
C92          H95   1.082       .  S
C93          C94   1.382       .  A
C93        C1938   1.475       .  S
C94          H96   1.082       .  S
N97          N98   1.323       .  A
N97         C101   1.345       .  A
N97        Cu105   2.071       .  S
N98          C99   1.345       .  A
N98        Cu104   2.074       .  S
C99         C100   1.381       .  A
C99         H102   1.082       .  S
C100        C101   1.380       .  A
C101        H103   1.082       .  S
Cu104       N107   2.074       .  S
Cu105       N115   2.071       .  S
Cu106       N108   2.069       .  S
Cu106       N114   2.070       .  S
N107        N108   1.323       .  A
N107        C111   1.344       .  A
N108        C109   1.345       .  A
C109        C110   1.379       .  A
C109        H112   1.082       .  S
C110        C111   1.380       .  A
C111        H113   1.082       .  S
N114        N115   1.322       .  A
N114        C118   1.344       .  A
N115        C116   1.344       .  A
C116        C117   1.382       .  A
C116        H119   1.082       .  S
C117        C118   1.381       .  A
C117       C1924   1.473       .  S
C118        H120   1.082       .  S
N121        N122   1.323       .  A
N121        C125   1.345       .  A
N121       Cu129   2.069       .  S
N122        C123   1.345       .  A
N122       Cu128   2.076       .  S
C123        C124   1.381       .  A
C123        H126   1.082       .  S
C124        C125   1.379       .  A
C125        H127   1.082       .  S
Cu128       N131   2.076       .  S
Cu129       N139   2.069       .  S
Cu130       N132   2.072       .  S
Cu130       N138   2.072       .  S
N131        N132   1.323       .  A
N131        C135   1.345       .  A
N132        C133   1.346       .  A
C133        C134   1.380       .  A
C133        H136   1.082       .  S
C134        C135   1.381       .  A
C135        H137   1.082       .  S
N138        N139   1.323       .  A
N138        C142   1.345       .  A
N139        C140   1.344       .  A
C140        C141   1.380       .  A
C140        H143   1.082       .  S
C141        C142   1.382       .  A
C141       C1913   1.471       .  S
C142        H144   1.082       .  S
N145        N146   1.323       .  A
N145        C149   1.347       .  A
N145       Cu153   2.074       .  S
N146        C147   1.344       .  A
N146       Cu152   2.072       .  S
C147        C148   1.380       .  A
C147        H150   1.082       .  S
C148        C149   1.381       .  A
C148        C230   1.464       .  S
C149        H151   1.082       .  S
Cu152       N155   2.072       .  S
Cu153       N163   2.075       .  S
Cu154       N156   2.070       .  S
Cu154       N162   2.071       .  S
N155        N156   1.322       .  A
N155        C159   1.344       .  A
N156        C157   1.346       .  A
C157        C158   1.381       .  A
C157        H160   1.082       .  S
C158        C159   1.381       .  A
C158        C278   1.463       .  S
C159        H161   1.082       .  S
N162        N163   1.322       .  A
N162        C166   1.343       .  A
N163        C164   1.345       .  A
C164        C165   1.387       .  A
C164        H167   1.079       .  S
C165        C166   1.385       .  A
C165       C1899   1.484       .  S
C166        H168   1.082       .  S
N169        N170   1.323       .  A
N169        C173   1.345       .  A
N169       Cu177   2.069       .  S
N170        C171   1.345       .  A
N170       Cu176   2.074       .  S
C171        C172   1.381       .  A
C171        H174   1.082       .  S
C172        C173   1.379       .  A
C172        C268   1.462       .  S
C173        H175   1.082       .  S
Cu176       N179   2.074       .  S
Cu177       N187   2.069       .  S
Cu178       N180   2.072       .  S
Cu178       N186   2.072       .  S
N179        N180   1.323       .  A
N179        C183   1.345       .  A
N180        C181   1.345       .  A
C181        C182   1.380       .  A
C181        H184   1.082       .  S
C182        C183   1.380       .  A
C182        C244   1.462       .  S
C183        H185   1.082       .  S
N186        N187   1.321       .  A
N186        C190   1.344       .  A
N187        C188   1.344       .  A
C188        C189   1.386       .  A
C188        H191   1.081       .  S
C189        C190   1.387       .  A
C189       C1885   1.485       .  S
C190        H192   1.082       .  S
N193        N194   1.323       .  A
N193        C197   1.346       .  A
N193       Cu201   2.074       .  S
N194        C195   1.344       .  A
N194       Cu200   2.074       .  S
C195        C196   1.380       .  A
C195        H198   1.082       .  S
C196        C197   1.380       .  A
C196        C220   1.463       .  S
C197        H199   1.082       .  S
Cu200       N203   2.073       .  S
Cu201       N211   2.074       .  S
Cu202       N204   2.069       .  S
Cu202       N210   2.069       .  S
N203        N204   1.322       .  A
N203        C207   1.345       .  A
N204        C205   1.345       .  A
C205        C206   1.380       .  A
C205        H208   1.082       .  S
C206        C207   1.381       .  A
C206        C254   1.462       .  S
C207        H209   1.082       .  S
N210        N211   1.322       .  A
N210        C214   1.343       .  A
N211        C212   1.345       .  A
C212        C213   1.386       .  A
C212        H215   1.080       .  S
C213        C214   1.384       .  A
C213       C1868   1.480       .  S
C214        H216   1.082       .  S
N217        N218   1.322       .  A
N217        C221   1.345       .  A
N217       Cu225   2.067       .  S
N218        C219   1.345       .  A
N218       Cu224   2.073       .  S
C219        C220   1.381       .  A
C219        H222   1.082       .  S
C220        C221   1.380       .  A
C221        H223   1.082       .  S
Cu224       N227   2.074       .  S
Cu225       N235   2.068       .  S
Cu226       N228   2.075       .  S
Cu226       N234   2.076       .  S
N227        N228   1.323       .  A
N227        C231   1.344       .  A
N228        C229   1.347       .  A
C229        C230   1.381       .  A
C229        H232   1.082       .  S
C230        C231   1.380       .  A
C231        H233   1.082       .  S
N234        N235   1.321       .  A
N234        C238   1.345       .  A
N235        C236   1.343       .  A
C236        C237   1.387       .  A
C236        H239   1.081       .  S
C237        C238   1.388       .  A
C237       C1854   1.488       .  S
C238        H240   1.082       .  S
N241        N242   1.323       .  A
N241        C245   1.345       .  A
N241       Cu249   2.070       .  S
N242        C243   1.345       .  A
N242       Cu248   2.074       .  S
C243        C244   1.380       .  A
C243        H246   1.082       .  S
C244        C245   1.380       .  A
C245        H247   1.082       .  S
Cu248       N251   2.074       .  S
Cu249       N259   2.070       .  S
Cu250       N252   2.069       .  S
Cu250       N258   2.069       .  S
N251        N252   1.323       .  A
N251        C255   1.345       .  A
N252        C253   1.345       .  A
C253        C254   1.380       .  A
C253        H256   1.082       .  S
C254        C255   1.380       .  A
C255        H257   1.082       .  S
N258        N259   1.322       .  A
N258        C262   1.343       .  A
N259        C260   1.344       .  A
C260        C261   1.385       .  A
C260        H263   1.081       .  S
C261        C262   1.384       .  A
C261       C1843   1.481       .  S
C262        H264   1.082       .  S
N265        N266   1.322       .  A
N265        C269   1.345       .  A
N265       Cu273   2.067       .  S
N266        C267   1.345       .  A
N266       Cu272   2.072       .  S
C267        C268   1.381       .  A
C267        H270   1.082       .  S
C268        C269   1.380       .  A
C269        H271   1.082       .  S
Cu272       N275   2.072       .  S
Cu273       N283   2.068       .  S
Cu274       N276   2.076       .  S
Cu274       N282   2.076       .  S
N275        N276   1.323       .  A
N275        C279   1.344       .  A
N276        C277   1.346       .  A
C277        C278   1.381       .  A
C277        H280   1.082       .  S
C278        C279   1.379       .  A
C279        H281   1.082       .  S
N282        N283   1.322       .  A
N282        C286   1.345       .  A
N283        C284   1.343       .  A
C284        C285   1.383       .  A
C284        H287   1.080       .  S
C285        C286   1.385       .  A
C285       C1826   1.480       .  S
C286        H288   1.082       .  S
N289        N290   1.322       .  A
N289        C293   1.346       .  A
N289       Cu297   2.070       .  S
N290        C291   1.343       .  A
N290       Cu296   2.066       .  S
C291        C292   1.379       .  A
C291        H294   1.082       .  S
C292        C293   1.381       .  A
C292        C364   1.461       .  S
C293        H295   1.082       .  S
Cu296       N299   2.066       .  S
Cu297       N307   2.071       .  S
Cu298       N300   2.074       .  S
Cu298       N306   2.075       .  S
N299        N300   1.322       .  A
N299        C303   1.343       .  A
N300        C301   1.347       .  A
C301        C302   1.381       .  A
C301        H304   1.082       .  S
C302        C303   1.378       .  A
C302        C422   1.462       .  S
C303        H305   1.082       .  S
N306        N307   1.323       .  A
N306        C310   1.345       .  A
N307        C308   1.344       .  A
C308        C309   1.382       .  A
C308        H311   1.082       .  S
C309        C310   1.383       .  A
C309       C1812   1.475       .  S
C310        H312   1.082       .  S
N313        N314   1.322       .  A
N313        C317   1.347       .  A
N313       Cu321   2.073       .  S
N314        C315   1.343       .  A
N314       Cu320   2.068       .  S
C315        C316   1.379       .  A
C315        H318   1.082       .  S
C316        C317   1.381       .  A
C316        C412   1.462       .  S
C317        H319   1.082       .  S
Cu320       N323   2.068       .  S
Cu321       N331   2.074       .  S
Cu322       N324   2.072       .  S
Cu322       N330   2.073       .  S
N323        N324   1.322       .  A
N323        C327   1.343       .  A
N324        C325   1.347       .  A
C325        C326   1.382       .  A
C325        H328   1.082       .  S
C326        C327   1.380       .  A
C326        C398   1.463       .  S
C327        H329   1.082       .  S
N330        N331   1.323       .  A
N330        C334   1.344       .  A
N331        C332   1.345       .  A
C332        C333   1.383       .  A
C332        H335   1.082       .  S
C333        C334   1.383       .  A
C333       C1798   1.478       .  S
C334        H336   1.082       .  S
N337        N338   1.322       .  A
N337        C341   1.348       .  A
N337       Cu345   2.080       .  S
N338        C339   1.343       .  A
N338       Cu344   2.066       .  S
C339        C340   1.379       .  A
C339        H342   1.082       .  S
C340        C341   1.384       .  A
C340        C388   1.466       .  S
C341        H343   1.082       .  S
Cu344       N347   2.066       .  S
Cu345       N355   2.082       .  S
Cu346       N348   2.083       .  S
Cu346       N354   2.085       .  S
N347        N348   1.322       .  A
N347        C351   1.342       .  A
N348        C349   1.349       .  A
C349        C350   1.384       .  A
C349        H352   1.082       .  S
C350        C351   1.379       .  A
C350        C374   1.467       .  S
C351        H353   1.082       .  S
N354        N355   1.323       .  A
N354        C358   1.346       .  A
N355        C356   1.346       .  A
C356        C357   1.386       .  A
C356        H359   1.080       .  S
C357        C358   1.386       .  A
C357       C1784   1.486       .  S
C358        H360   1.082       .  S
N361        N362   1.322       .  A
N361        C365   1.346       .  A
N361       Cu369   2.070       .  S
N362        C363   1.343       .  A
N362       Cu368   2.067       .  S
C363        C364   1.379       .  A
C363        H366   1.082       .  S
C364        C365   1.381       .  A
C365        H367   1.082       .  S
Cu368       N371   2.068       .  S
Cu369       N379   2.071       .  S
Cu370       N372   2.079       .  S
Cu370       N378   2.080       .  S
N371        N372   1.322       .  A
N371        C375   1.343       .  A
N372        C373   1.348       .  A
C373        C374   1.384       .  A
C373        H376   1.082       .  S
C374        C375   1.380       .  A
C375        H377   1.082       .  S
N378        N379   1.323       .  A
N378        C382   1.345       .  A
N379        C380   1.345       .  A
C380        C381   1.384       .  A
C380        H383   1.082       .  S
C381        C382   1.385       .  A
C381       C1770   1.482       .  S
C382        H384   1.082       .  S
N385        N386   1.322       .  A
N385        C389   1.348       .  A
N385       Cu393   2.079       .  S
N386        C387   1.343       .  A
N386       Cu392   2.068       .  S
C387        C388   1.379       .  A
C387        H390   1.082       .  S
C388        C389   1.383       .  A
C389        H391   1.082       .  S
Cu392       N395   2.067       .  S
Cu393       N403   2.080       .  S
Cu394       N396   2.073       .  S
Cu394       N402   2.074       .  S
N395        N396   1.322       .  A
N395        C399   1.343       .  A
N396        C397   1.347       .  A
C397        C398   1.382       .  A
C397        H400   1.082       .  S
C398        C399   1.379       .  A
C399        H401   1.082       .  S
N402        N403   1.323       .  A
N402        C406   1.343       .  A
N403        C404   1.346       .  A
C404        C405   1.386       .  A
C404        H407   1.082       .  S
C405        C406   1.384       .  A
C405       C1756   1.483       .  S
C406        H408   1.082       .  S
N409        N410   1.322       .  A
N409        C413   1.346       .  A
N409       Cu417   2.070       .  S
N410        C411   1.344       .  A
N410       Cu416   2.071       .  S
C411        C412   1.380       .  A
C411        H414   1.082       .  S
C412        C413   1.381       .  A
C413        H415   1.082       .  S
Cu416       N419   2.072       .  S
Cu417       N427   2.071       .  S
Cu418       N420   2.069       .  S
Cu418       N426   2.070       .  S
N419        N420   1.322       .  A
N419        C423   1.344       .  A
N420        C421   1.346       .  A
C421        C422   1.380       .  A
C421        H424   1.082       .  S
C422        C423   1.380       .  A
C423        H425   1.082       .  S
N426        N427   1.323       .  A
N426        C430   1.345       .  A
N427        C428   1.343       .  A
C428        C429   1.382       .  A
C428        H431   1.082       .  S
C429        C430   1.383       .  A
C429       C1742   1.476       .  S
C430        H432   1.082       .  S
N433        N434   1.323       .  A
N433        C437   1.348       .  A
N433       Cu441   2.081       .  S
N434        C435   1.343       .  A
N434       Cu440   2.068       .  S
C435        C436   1.379       .  A
C435        H438   1.082       .  S
C436        C437   1.383       .  A
C436        C518   1.465       .  S
C437        H439   1.082       .  S
Cu440       N443   2.067       .  S
Cu441       N451   2.082       .  S
Cu442       N444   2.067       .  S
Cu442       N450   2.068       .  S
N443        N444   1.321       .  A
N443        C447   1.344       .  A
N444        C445   1.346       .  A
C445        C446   1.380       .  A
C445        H448   1.082       .  S
C446        C447   1.379       .  A
C446        C556   1.461       .  S
C447        H449   1.082       .  S
N450        N451   1.322       .  A
N450        C454   1.343       .  A
N451        C452   1.346       .  A
C452        C453   1.389       .  A
C452        H455   1.082       .  S
C453        C454   1.386       .  A
C453       C1728   1.488       .  S
C454        H456   1.081       .  S
N457        N458   1.322       .  A
N457        C461   1.347       .  A
N457       Cu465   2.074       .  S
N458        C459   1.343       .  A
N458       Cu464   2.067       .  S
C459        C460   1.379       .  A
C459        H462   1.082       .  S
C460        C461   1.382       .  A
C460        C566   1.463       .  S
C461        H463   1.082       .  S
Cu464       N467   2.067       .  S
Cu465       N475   2.075       .  S
Cu466       N468   2.073       .  S
Cu466       N474   2.074       .  S
N467        N468   1.322       .  A
N467        C471   1.343       .  A
N468        C469   1.347       .  A
C469        C470   1.382       .  A
C469        H472   1.082       .  S
C470        C471   1.379       .  A
C470        C542   1.463       .  S
C471        H473   1.082       .  S
N474        N475   1.323       .  A
N474        C478   1.344       .  A
N475        C476   1.345       .  A
C476        C477   1.385       .  A
C476        H479   1.082       .  S
C477        C478   1.385       .  A
C477       C1714   1.483       .  S
C478        H480   1.081       .  S
N481        N482   1.322       .  A
N481        C485   1.350       .  A
N481       Cu489   2.086       .  S
N482        C483   1.342       .  A
N482       Cu488   2.065       .  S
C483        C484   1.379       .  A
C483        H486   1.082       .  S
C484        C485   1.385       .  A
C484        C532   1.467       .  S
C485        H487   1.082       .  S
Cu488       N491   2.065       .  S
Cu489       N499   2.088       .  S
Cu490       N492   2.084       .  S
Cu490       N498   2.086       .  S
N491        N492   1.322       .  A
N491        C495   1.343       .  A
N492        C493   1.349       .  A
C493        C494   1.385       .  A
C493        H496   1.082       .  S
C494        C495   1.379       .  A
C494        C508   1.466       .  S
C495        H497   1.082       .  S
N498        N499   1.324       .  A
N498        C502   1.346       .  A
N499        C500   1.347       .  A
C500        C501   1.388       .  A
C500        H503   1.082       .  S
C501        C502   1.388       .  A
C501       C1700   1.491       .  S
C502        H504   1.081       .  S
N505        N506   1.322       .  A
N505        C509   1.348       .  A
N505       Cu513   2.077       .  S
N506        C507   1.344       .  A
N506       Cu512   2.072       .  S
C507        C508   1.381       .  A
C507        H510   1.082       .  S
C508        C509   1.383       .  A
C509        H511   1.082       .  S
Cu512       N515   2.072       .  S
Cu513       N523   2.078       .  S
Cu514       N516   2.076       .  S
Cu514       N522   2.077       .  S
N515        N516   1.322       .  A
N515        C519   1.344       .  A
N516        C517   1.347       .  A
C517        C518   1.382       .  A
C517        H520   1.082       .  S
C518        C519   1.380       .  A
C519        H521   1.082       .  S
N522        N523   1.323       .  A
N522        C526   1.345       .  A
N523        C524   1.346       .  A
C524        C525   1.384       .  A
C524        H527   1.082       .  S
C525        C526   1.383       .  A
C525       C1689   1.478       .  S
C526        H528   1.082       .  S
N529        N530   1.323       .  A
N529        C533   1.349       .  A
N529       Cu537   2.085       .  S
N530        C531   1.343       .  A
N530       Cu536   2.070       .  S
C531        C532   1.380       .  A
C531        H534   1.082       .  S
C532        C533   1.384       .  A
C533        H535   1.082       .  S
Cu536       N539   2.069       .  S
Cu537       N547   2.085       .  S
Cu538       N540   2.070       .  S
Cu538       N546   2.071       .  S
N539        N540   1.321       .  A
N539        C543   1.343       .  A
N540        C541   1.346       .  A
C541        C542   1.381       .  A
C541        H544   1.082       .  S
C542        C543   1.380       .  A
C543        H545   1.082       .  S
N546        N547   1.323       .  A
N546        C550   1.343       .  A
N547        C548   1.347       .  A
C548        C549   1.388       .  A
C548        H551   1.082       .  S
C549        C550   1.385       .  A
C549       C1672   1.486       .  S
C550        H552   1.081       .  S
N553        N554   1.322       .  A
N553        C557   1.345       .  A
N553       Cu561   2.068       .  S
N554        C555   1.344       .  A
N554       Cu560   2.069       .  S
C555        C556   1.380       .  A
C555        H558   1.082       .  S
C556        C557   1.380       .  A
C557        H559   1.082       .  S
Cu560       N563   2.069       .  S
Cu561       N571   2.069       .  S
Cu562       N564   2.074       .  S
Cu562       N570   2.075       .  S
N563        N564   1.322       .  A
N563        C567   1.343       .  A
N564        C565   1.347       .  A
C565        C566   1.382       .  A
C565        H568   1.082       .  S
C566        C567   1.379       .  A
C567        H569   1.082       .  S
N570        N571   1.323       .  A
N570        C574   1.345       .  A
N571        C572   1.344       .  A
C572        C573   1.380       .  A
C572        H575   1.082       .  S
C573        C574   1.381       .  A
C573       C1658   1.470       .  S
C574        H576   1.082       .  S
N577        N578   1.322       .  A
N577        C581   1.349       .  A
N577       Cu585   2.084       .  S
N578        C579   1.343       .  A
N578       Cu584   2.068       .  S
C579        C580   1.379       .  A
C579        H582   1.082       .  S
C580        C581   1.384       .  A
C580        C700   1.468       .  S
C581        H583   1.082       .  S
Cu584       N587   2.068       .  S
Cu585       N595   2.085       .  S
Cu586       N588   2.081       .  S
Cu586       N594   2.083       .  S
N587        N588   1.322       .  A
N587        C591   1.343       .  A
N588        C589   1.349       .  A
C589        C590   1.384       .  A
C589        H592   1.082       .  S
C590        C591   1.380       .  A
C590        C662   1.467       .  S
C591        H593   1.082       .  S
N594        N595   1.323       .  A
N594        C598   1.346       .  A
N595        C596   1.346       .  A
C596        C597   1.389       .  A
C596        H599   1.081       .  S
C597        C598   1.388       .  A
C597       C1644   1.492       .  S
C598        H600   1.082       .  S
N601        N602   1.321       .  A
N601        C605   1.346       .  A
N601       Cu609   2.067       .  S
N602        C603   1.343       .  A
N602       Cu608   2.063       .  S
C603        C604   1.379       .  A
C603        H606   1.082       .  S
C604        C605   1.381       .  A
C604        C686   1.461       .  S
C605        H607   1.082       .  S
Cu608       N611   2.063       .  S
Cu609       N619   2.069       .  S
Cu610       N612   2.078       .  S
Cu610       N618   2.079       .  S
N611        N612   1.323       .  A
N611        C615   1.342       .  A
N612        C613   1.348       .  A
C613        C614   1.383       .  A
C613        H616   1.082       .  S
C614        C615   1.378       .  A
C614        C710   1.463       .  S
C615        H617   1.082       .  S
N618        N619   1.322       .  A
N618        C622   1.346       .  A
N619        C620   1.342       .  A
C620        C621   1.386       .  A
C620        H623   1.082       .  S
C621        C622   1.390       .  A
C621       C1630   1.490       .  S
C622        H624   1.080       .  S
N625        N626   1.322       .  A
N625        C629   1.346       .  A
N625       Cu633   2.069       .  S
N626        C627   1.343       .  A
N626       Cu632   2.068       .  S
C627        C628   1.379       .  A
C627        H630   1.082       .  S
C628        C629   1.380       .  A
C628        C676   1.461       .  S
C629        H631   1.082       .  S
Cu632       N635   2.068       .  S
Cu633       N643   2.070       .  S
Cu634       N636   2.078       .  S
Cu634       N642   2.078       .  S
N635        N636   1.323       .  A
N635        C639   1.343       .  A
N636        C637   1.347       .  A
C637        C638   1.382       .  A
C637        H640   1.082       .  S
C638        C639   1.379       .  A
C638        C652   1.463       .  S
C639        H641   1.082       .  S
N642        N643   1.323       .  A
N642        C646   1.345       .  A
N643        C644   1.344       .  A
C644        C645   1.383       .  A
C644        H647   1.081       .  S
C645        C646   1.384       .  A
C645       C1616   1.479       .  S
C646        H648   1.082       .  S
N649        N650   1.321       .  A
N649        C653   1.346       .  A
N649       Cu657   2.071       .  S
N650        C651   1.344       .  A
N650       Cu656   2.069       .  S
C651        C652   1.380       .  A
C651        H654   1.082       .  S
C652        C653   1.382       .  A
C653        H655   1.082       .  S
Cu656       N659   2.070       .  S
Cu657       N667   2.072       .  S
Cu658       N660   2.083       .  S
Cu658       N666   2.083       .  S
N659        N660   1.323       .  A
N659        C663   1.343       .  A
N660        C661   1.348       .  A
C661        C662   1.384       .  A
C661        H664   1.082       .  S
C662        C663   1.379       .  A
C663        H665   1.082       .  S
N666        N667   1.322       .  A
N666        C670   1.347       .  A
N667        C668   1.343       .  A
C668        C669   1.386       .  A
C668        H671   1.082       .  S
C669        C670   1.390       .  A
C669       C1602   1.490       .  S
C670        H672   1.081       .  S
N673        N674   1.323       .  A
N673        C677   1.346       .  A
N673       Cu681   2.070       .  S
N674        C675   1.343       .  A
N674       Cu680   2.069       .  S
C675        C676   1.379       .  A
C675        H678   1.082       .  S
C676        C677   1.380       .  A
C677        H679   1.082       .  S
Cu680       N683   2.069       .  S
Cu681       N691   2.071       .  S
Cu682       N684   2.066       .  S
Cu682       N690   2.067       .  S
N683        N684   1.322       .  A
N683        C687   1.343       .  A
N684        C685   1.345       .  A
C685        C686   1.380       .  A
C685        H688   1.082       .  S
C686        C687   1.380       .  A
C687        H689   1.082       .  S
N690        N691   1.322       .  A
N690        C694   1.343       .  A
N691        C692   1.344       .  A
C692        C693   1.385       .  A
C692        H695   1.082       .  S
C693        C694   1.385       .  A
C693       C1588   1.481       .  S
C694        H696   1.081       .  S
N697        N698   1.323       .  A
N697        C701   1.349       .  A
N697       Cu705   2.083       .  S
N698        C699   1.343       .  A
N698       Cu704   2.072       .  S
C699        C700   1.380       .  A
C699        H702   1.082       .  S
C700        C701   1.384       .  A
C701        H703   1.082       .  S
Cu704       N707   2.071       .  S
Cu705       N715   2.083       .  S
Cu706       N708   2.065       .  S
Cu706       N714   2.066       .  S
N707        N708   1.321       .  A
N707        C711   1.343       .  A
N708        C709   1.346       .  A
C709        C710   1.381       .  A
C709        H712   1.082       .  S
C710        C711   1.381       .  A
C711        H713   1.082       .  S
N714        N715   1.322       .  A
N714        C718   1.342       .  A
N715        C716   1.347       .  A
C716        C717   1.387       .  A
C716        H719   1.082       .  S
C717        C718   1.383       .  A
C717       C1574   1.483       .  S
C718        H720   1.080       .  S
N721        N722   1.322       .  A
N721        C725   1.346       .  A
N721       Cu729   2.070       .  S
N722        C723   1.343       .  A
N722       Cu728   2.067       .  S
C723        C724   1.379       .  A
C723        H726   1.082       .  S
C724        C725   1.381       .  A
C724        C854   1.462       .  S
C725        H727   1.082       .  S
Cu728       N731   2.067       .  S
Cu729       N739   2.071       .  S
Cu730       N732   2.077       .  S
Cu730       N738   2.078       .  S
N731        N732   1.322       .  A
N731        C735   1.343       .  A
N732        C733   1.347       .  A
C733        C734   1.382       .  A
C733        H736   1.082       .  S
C734        C735   1.379       .  A
C734        C806   1.464       .  S
C735        H737   1.082       .  S
N738        N739   1.322       .  A
N738        C742   1.345       .  A
N739        C740   1.344       .  A
C740        C741   1.385       .  A
C740        H743   1.081       .  S
C741        C742   1.386       .  A
C741       C1560   1.484       .  S
C742        H744   1.082       .  S
N745        N746   1.323       .  A
N745        C749   1.347       .  A
N745       Cu753   2.077       .  S
N746        C747   1.343       .  A
N746       Cu752   2.066       .  S
C747        C748   1.378       .  A
C747        H750   1.082       .  S
C748        C749   1.382       .  A
C748        C830   1.463       .  S
C749        H751   1.082       .  S
Cu752       N755   2.065       .  S
Cu753       N763   2.078       .  S
Cu754       N756   2.072       .  S
Cu754       N762   2.073       .  S
N755        N756   1.321       .  A
N755        C759   1.343       .  A
N756        C757   1.347       .  A
C757        C758   1.382       .  A
C757        H760   1.082       .  S
C758        C759   1.379       .  A
C758        C844   1.462       .  S
C759        H761   1.082       .  S
N762        N763   1.322       .  A
N762        C766   1.343       .  A
N763        C764   1.345       .  A
C764        C765   1.390       .  A
C764        H767   1.080       .  S
C765        C766   1.388       .  A
C765       C1546   1.491       .  S
C766        H768   1.081       .  S
N769        N770   1.322       .  A
N769        C773   1.349       .  A
N769       Cu777   2.084       .  S
N770        C771   1.343       .  A
N770       Cu776   2.063       .  S
C771        C772   1.378       .  A
C771        H774   1.082       .  S
C772        C773   1.384       .  A
C772        C796   1.466       .  S
C773        H775   1.082       .  S
Cu776       N779   2.063       .  S
Cu777       N787   2.085       .  S
Cu778       N780   2.087       .  S
Cu778       N786   2.089       .  S
N779        N780   1.322       .  A
N779        C783   1.342       .  A
N780        C781   1.350       .  A
C781        C782   1.385       .  A
C781        H784   1.082       .  S
C782        C783   1.378       .  A
C782        C820   1.467       .  S
C783        H785   1.082       .  S
N786        N787   1.324       .  A
N786        C790   1.346       .  A
N787        C788   1.347       .  A
C788        C789   1.387       .  A
C788        H791   1.080       .  S
C789        C790   1.387       .  A
C789       C1535   1.488       .  S
C790        H792   1.082       .  S
N793        N794   1.322       .  A
N793        C797   1.348       .  A
N793       Cu801   2.078       .  S
N794        C795   1.343       .  A
N794       Cu800   2.070       .  S
C795        C796   1.380       .  A
C795        H798   1.082       .  S
C796        C797   1.383       .  A
C797        H799   1.082       .  S
Cu800       N803   2.070       .  S
Cu801       N811   2.079       .  S
Cu802       N804   2.074       .  S
Cu802       N810   2.075       .  S
N803        N804   1.322       .  A
N803        C807   1.343       .  A
N804        C805   1.347       .  A
C805        C806   1.382       .  A
C805        H808   1.082       .  S
C806        C807   1.380       .  A
C807        H809   1.082       .  S
N810        N811   1.320       .  A
N810        C814   1.344       .  A
N811        C812   1.344       .  A
C812        C813   1.392       .  A
C812        H815   1.081       .  S
C813        C814   1.392       .  A
C813       C1521   1.499       .  S
C814        H816   1.075       .  S
N817        N818   1.323       .  A
N817        C821   1.348       .  A
N817       Cu825   2.081       .  S
N818        C819   1.343       .  A
N818       Cu824   2.073       .  S
C819        C820   1.380       .  A
C819        H822   1.082       .  S
C820        C821   1.384       .  A
C821        H823   1.082       .  S
Cu824       N827   2.072       .  S
Cu825       N835   2.082       .  S
Cu826       N828   2.069       .  S
Cu826       N834   2.070       .  S
N827        N828   1.322       .  A
N827        C831   1.344       .  A
N828        C829   1.346       .  A
C829        C830   1.381       .  A
C829        H832   1.082       .  S
C830        C831   1.381       .  A
C831        H833   1.082       .  S
N834        N835   1.323       .  A
N834        C838   1.343       .  A
N835        C836   1.347       .  A
C836        C837   1.384       .  A
C836        H839   1.082       .  S
C837        C838   1.381       .  A
C837       C1507   1.475       .  S
C838        H840   1.082       .  S
N841        N842   1.322       .  A
N841        C845   1.346       .  A
N841       Cu849   2.072       .  S
N842        C843   1.343       .  A
N842       Cu848   2.070       .  S
C843        C844   1.379       .  A
C843        H846   1.082       .  S
C844        C845   1.381       .  A
C845        H847   1.082       .  S
Cu848       N851   2.070       .  S
Cu849       N859   2.072       .  S
Cu850       N852   2.069       .  S
Cu850       N858   2.070       .  S
N851        N852   1.322       .  A
N851        C855   1.343       .  A
N852        C853   1.346       .  A
C853        C854   1.380       .  A
C853        H856   1.082       .  S
C854        C855   1.380       .  A
C855        H857   1.082       .  S
N858        N859   1.323       .  A
N858        C862   1.344       .  A
N859        C860   1.345       .  A
C860        C861   1.382       .  A
C860        H863   1.082       .  S
C861        C862   1.383       .  A
C861       C1490   1.476       .  S
C862        H864   1.082       .  S
N865        N866   1.322       .  A
N865        C869   1.345       .  A
N865       Cu873   2.066       .  S
N866        C867   1.344       .  A
N866       Cu872   2.070       .  S
C867        C868   1.380       .  A
C867        H870   1.082       .  S
C868        C869   1.379       .  A
C868        C998   1.461       .  S
C869        H871   1.082       .  S
Cu872       N875   2.071       .  S
Cu873       N883   2.067       .  S
Cu874       N876   2.075       .  S
Cu874       N882   2.075       .  S
N875        N876   1.323       .  A
N875        C879   1.344       .  A
N876        C877   1.347       .  A
C877        C878   1.381       .  A
C877        H880   1.082       .  S
C878        C879   1.380       .  A
C878        C950   1.464       .  S
C879        H881   1.082       .  S
N882        N883   1.323       .  A
N882        C886   1.345       .  A
N883        C884   1.344       .  A
C884        C885   1.381       .  A
C884        H887   1.082       .  S
C885        C886   1.383       .  A
C885       C1476   1.474       .  S
C886        H888   1.082       .  S
N889        N890   1.323       .  A
N889        C893   1.346       .  A
N889       Cu897   2.076       .  S
N890        C891   1.345       .  A
N890       Cu896   2.075       .  S
C891        C892   1.381       .  A
C891        H894   1.082       .  S
C892        C893   1.381       .  A
C892        C988   1.464       .  S
C893        H895   1.082       .  S
Cu896       N899   2.075       .  S
Cu897       N907   2.076       .  S
Cu898       N900   2.065       .  S
Cu898       N906   2.065       .  S
N899        N900   1.322       .  A
N899        C903   1.345       .  A
N900        C901   1.345       .  A
C901        C902   1.379       .  A
C901        H904   1.082       .  S
C902        C903   1.381       .  A
C902        C964   1.462       .  S
C903        H905   1.082       .  S
N906        N907   1.322       .  A
N906        C910   1.343       .  A
N907        C908   1.346       .  A
C908        C909   1.384       .  A
C908        H911   1.082       .  S
C909        C910   1.382       .  A
C909       C1462   1.476       .  S
C910        H912   1.082       .  S
N913        N914   1.324       .  A
N913        C917   1.347       .  A
N913       Cu921   2.078       .  S
N914        C915   1.344       .  A
N914       Cu920   2.075       .  S
C915        C916   1.379       .  A
C915        H918   1.082       .  S
C916        C917   1.381       .  A
C916        C940   1.464       .  S
C917        H919   1.082       .  S
Cu920       N923   2.075       .  S
Cu921       N931   2.078       .  S
Cu922       N924   2.064       .  S
Cu922       N930   2.065       .  S
N923        N924   1.322       .  A
N923        C927   1.345       .  A
N924        C925   1.344       .  A
C925        C926   1.379       .  A
C925        H928   1.082       .  S
C926        C927   1.382       .  A
C926        C974   1.462       .  S
C927        H929   1.082       .  S
N930        N931   1.321       .  A
N930        C934   1.343       .  A
N931        C932   1.346       .  A
C932        C933   1.386       .  A
C932        H935   1.082       .  S
C933        C934   1.384       .  A
C933       C1448   1.481       .  S
C934        H936   1.080       .  S
N937        N938   1.323       .  A
N937        C941   1.346       .  A
N937       Cu945   2.074       .  S
N938        C939   1.345       .  A
N938       Cu944   2.074       .  S
C939        C940   1.381       .  A
C939        H942   1.082       .  S
C940        C941   1.381       .  A
C941        H943   1.082       .  S
Cu944       N947   2.073       .  S
Cu945       N955   2.074       .  S
Cu946       N948   2.072       .  S
Cu946       N954   2.073       .  S
N947        N948   1.322       .  A
N947        C951   1.344       .  A
N948        C949   1.346       .  A
C949        C950   1.381       .  A
C949        H952   1.082       .  S
C950        C951   1.380       .  A
C951        H953   1.082       .  S
N954        N955   1.323       .  A
N954        C958   1.344       .  A
N955        C956   1.346       .  A
C956        C957   1.383       .  A
C956        H959   1.082       .  S
C957        C958   1.382       .  A
C957       C1434   1.476       .  S
C958        H960   1.082       .  S
N961        N962   1.322       .  A
N961        C965   1.344       .  A
N961       Cu969   2.064       .  S
N962        C963   1.345       .  A
N962       Cu968   2.074       .  S
C963        C964   1.381       .  A
C963        H966   1.082       .  S
C964        C965   1.379       .  A
C965        H967   1.082       .  S
Cu968       N971   2.074       .  S
Cu969       N979   2.065       .  S
Cu970       N972   2.071       .  S
Cu970       N978   2.071       .  S
N971        N972   1.323       .  A
N971        C975   1.344       .  A
N972        C973   1.346       .  A
C973        C974   1.380       .  A
C973        H976   1.082       .  S
C974        C975   1.379       .  A
C975        H977   1.082       .  S
N978        N979   1.321       .  A
N978        C982   1.344       .  A
N979        C980   1.342       .  A
C980        C981   1.386       .  A
C980        H983   1.081       .  S
C981        C982   1.387       .  A
C981       C1420   1.485       .  S
C982        H984   1.082       .  S
N985        N986   1.323       .  A
N985        C989   1.346       .  A
N985       Cu993   2.077       .  S
N986        C987   1.345       .  A
N986       Cu992   2.073       .  S
C987        C988   1.380       .  A
C987        H990   1.082       .  S
C988        C989   1.381       .  A
C989        H991   1.082       .  S
Cu992       N995   2.073       .  S
Cu993      N1003   2.076       .  S
Cu994       N996   2.064       .  S
Cu994      N1002   2.065       .  S
N995        N996   1.322       .  A
N995        C999   1.344       .  A
N996        C997   1.345       .  A
C997        C998   1.379       .  A
C997       H1000   1.082       .  S
C998        C999   1.380       .  A
C999       H1001   1.082       .  S
N1002      N1003   1.322       .  A
N1002      C1006   1.343       .  A
N1003      C1004   1.345       .  A
C1004      C1005   1.385       .  A
C1004      H1007   1.082       .  S
C1005      C1006   1.383       .  A
C1005      C1406   1.480       .  S
C1006      H1008   1.082       .  S
N1009      N1010   1.323       .  A
N1009      C1013   1.347       .  A
N1009     Cu1017   2.076       .  S
N1010      C1011   1.343       .  A
N1010     Cu1016   2.068       .  S
C1011      C1012   1.379       .  A
C1011      H1014   1.082       .  S
C1012      C1013   1.382       .  A
C1012      C1118   1.463       .  S
C1013      H1015   1.082       .  S
Cu1016     N1019   2.068       .  S
Cu1017     N1027   2.076       .  S
Cu1018     N1020   2.066       .  S
Cu1018     N1026   2.068       .  S
N1019      N1020   1.321       .  A
N1019      C1023   1.343       .  A
N1020      C1021   1.346       .  A
C1021      C1022   1.380       .  A
C1021      H1024   1.082       .  S
C1022      C1023   1.380       .  A
C1022      C1142   1.462       .  S
C1023      H1025   1.082       .  S
N1026      N1027   1.321       .  A
N1026      C1030   1.342       .  A
N1027      C1028   1.345       .  A
C1028      C1029   1.390       .  A
C1028      H1031   1.080       .  S
C1029      C1030   1.386       .  A
C1029      C1395   1.489       .  S
C1030      H1032   1.082       .  S
N1033      N1034   1.322       .  A
N1033      C1037   1.345       .  A
N1033     Cu1041   2.067       .  S
N1034      C1035   1.346       .  A
N1034     Cu1040   2.077       .  S
C1035      C1036   1.382       .  A
C1035      H1038   1.082       .  S
C1036      C1037   1.379       .  A
C1036      C1132   1.463       .  S
C1037      H1039   1.082       .  S
Cu1040     N1043   2.077       .  S
Cu1041     N1051   2.067       .  S
Cu1042     N1044   2.074       .  S
Cu1042     N1050   2.074       .  S
N1043      N1044   1.324       .  A
N1043      C1047   1.345       .  A
N1044      C1045   1.346       .  A
C1045      C1046   1.380       .  A
C1045      H1048   1.082       .  S
C1046      C1047   1.381       .  A
C1046      C1084   1.463       .  S
C1047      H1049   1.082       .  S
N1050      N1051   1.321       .  A
N1050      C1054   1.345       .  A
N1051      C1052   1.343       .  A
C1052      C1053   1.385       .  A
C1052      H1055   1.080       .  S
C1053      C1054   1.386       .  A
C1053      C1378   1.482       .  S
C1054      H1056   1.082       .  S
N1057      N1058   1.323       .  A
N1057      C1061   1.346       .  A
N1057     Cu1065   2.073       .  S
N1058      C1059   1.345       .  A
N1058     Cu1064   2.075       .  S
C1059      C1060   1.381       .  A
C1059      H1062   1.082       .  S
C1060      C1061   1.380       .  A
C1060      C1108   1.463       .  S
C1061      H1063   1.082       .  S
Cu1064     N1067   2.075       .  S
Cu1065     N1075   2.073       .  S
Cu1066     N1068   2.072       .  S
Cu1066     N1074   2.073       .  S
N1067      N1068   1.323       .  A
N1067      C1071   1.345       .  A
N1068      C1069   1.345       .  A
C1069      C1070   1.380       .  A
C1069      H1072   1.082       .  S
C1070      C1071   1.380       .  A
C1070      C1094   1.463       .  S
C1071      H1073   1.082       .  S
N1074      N1075   1.321       .  A
N1074      C1078   1.345       .  A
N1075      C1076   1.344       .  A
C1076      C1077   1.387       .  A
C1076      H1079   1.081       .  S
C1077      C1078   1.386       .  A
C1077      C1364   1.485       .  S
C1078      H1080   1.082       .  S
N1081      N1082   1.323       .  A
N1081      C1085   1.346       .  A
N1081     Cu1089   2.073       .  S
N1082      C1083   1.345       .  A
N1082     Cu1088   2.076       .  S
C1083      C1084   1.381       .  A
C1083      H1086   1.082       .  S
C1084      C1085   1.380       .  A
C1085      H1087   1.082       .  S
Cu1088     N1091   2.076       .  S
Cu1089     N1099   2.073       .  S
Cu1090     N1092   2.069       .  S
Cu1090     N1098   2.069       .  S
N1091      N1092   1.322       .  A
N1091      C1095   1.345       .  A
N1092      C1093   1.345       .  A
C1093      C1094   1.380       .  A
C1093      H1096   1.082       .  S
C1094      C1095   1.381       .  A
C1095      H1097   1.082       .  S
N1098      N1099   1.321       .  A
N1098      C1102   1.343       .  A
N1099      C1100   1.345       .  A
C1100      C1101   1.387       .  A
C1100      H1103   1.081       .  S
C1101      C1102   1.385       .  A
C1101      C1350   1.484       .  S
C1102      H1104   1.082       .  S
N1105      N1106   1.323       .  A
N1105      C1109   1.346       .  A
N1105     Cu1113   2.075       .  S
N1106      C1107   1.344       .  A
N1106     Cu1112   2.072       .  S
C1107      C1108   1.380       .  A
C1107      H1110   1.082       .  S
C1108      C1109   1.381       .  A
C1109      H1111   1.082       .  S
Cu1112     N1115   2.072       .  S
Cu1113     N1123   2.075       .  S
Cu1114     N1116   2.069       .  S
Cu1114     N1122   2.070       .  S
N1115      N1116   1.322       .  A
N1115      C1119   1.344       .  A
N1116      C1117   1.346       .  A
C1117      C1118   1.381       .  A
C1117      H1120   1.082       .  S
C1118      C1119   1.380       .  A
C1119      H1121   1.082       .  S
N1122      N1123   1.321       .  A
N1122      C1126   1.342       .  A
N1123      C1124   1.345       .  A
C1124      C1125   1.389       .  A
C1124      H1127   1.078       .  S
C1125      C1126   1.386       .  A
C1125      C1336   1.488       .  S
C1126      H1128   1.082       .  S
N1129      N1130   1.322       .  A
N1129      C1133   1.346       .  A
N1129     Cu1137   2.074       .  S
N1130      C1131   1.344       .  A
N1130     Cu1136   2.069       .  S
C1131      C1132   1.379       .  A
C1131      H1134   1.082       .  S
C1132      C1133   1.381       .  A
C1133      H1135   1.082       .  S
Cu1136     N1139   2.069       .  S
Cu1137     N1147   2.074       .  S
Cu1138     N1140   2.070       .  S
Cu1138     N1146   2.071       .  S
N1139      N1140   1.322       .  A
N1139      C1143   1.343       .  A
N1140      C1141   1.346       .  A
C1141      C1142   1.380       .  A
C1141      H1144   1.082       .  S
C1142      C1143   1.379       .  A
C1143      H1145   1.082       .  S
N1146      N1147   1.322       .  A
N1146      C1150   1.344       .  A
N1147      C1148   1.344       .  A
C1148      C1149   1.385       .  A
C1148      H1151   1.082       .  S
C1149      C1150   1.385       .  A
C1149      C1322   1.483       .  S
C1150      H1152   1.081       .  S
O1153     Cu1161   1.991       .  S
O1153      C1163   1.275       .  A
O1154     Cu1161   1.991       .  S
O1154      C1164   1.274       .  A
O1155     Cu1161   1.999       .  S
O1155      C1165   1.277       .  A
O1156     Cu1161   1.996       .  S
O1156      C1166   1.276       .  A
O1157     Cu1162   2.022       .  S
O1157      C1166   1.278       .  A
O1158     Cu1162   2.013       .  S
O1158      C1165   1.278       .  A
O1159     Cu1162   2.028       .  S
O1159      C1164   1.281       .  A
O1160     Cu1162   2.026       .  S
O1160      C1163   1.279       .  A
Cu1161    Cu1162   2.373       .  S
C1163      C1605   1.471       .  S
C1164      C1437   1.488       .  S
C1165      C1325   1.476       .  S
C1166      C1518   1.469       .  S
O1167     Cu1175   1.991       .  S
O1167      C1177   1.276       .  A
O1168     Cu1175   1.999       .  S
O1168      C1178   1.277       .  A
O1169     Cu1175   1.987       .  S
O1169      C1179   1.275       .  A
O1170     Cu1175   1.991       .  S
O1170      C1180   1.276       .  A
O1171     Cu1176   2.021       .  S
O1171      C1180   1.279       .  A
O1172     Cu1176   2.027       .  S
O1172      C1179   1.280       .  A
O1173     Cu1176   2.019       .  S
O1173      C1178   1.279       .  A
O1174     Cu1176   2.022       .  S
O1174      C1177   1.279       .  A
Cu1175    Cu1176   2.375       .  S
C1177      C1339   1.471       .  S
C1178      C1759   1.476       .  S
C1179      C1577   1.477       .  S
C1180      C1829   1.473       .  S
O1181     Cu1189   1.990       .  S
O1181      C1191   1.277       .  A
O1182     Cu1189   1.997       .  S
O1182      C1192   1.276       .  A
O1183     Cu1189   1.994       .  S
O1183      C1193   1.275       .  A
O1184     Cu1189   1.990       .  S
O1184      C1194   1.275       .  A
O1185     Cu1190   2.016       .  S
O1185      C1194   1.278       .  A
O1186     Cu1190   2.012       .  S
O1186      C1193   1.278       .  A
O1187     Cu1190   2.014       .  S
O1187      C1192   1.278       .  A
O1188     Cu1190   2.021       .  S
O1188      C1191   1.280       .  A
Cu1189    Cu1190   2.376       .  S
C1191      C1910   1.486       .  S
C1192      C1353   1.469       .  S
C1193      C1423   1.466       .  S
C1194      C1840   1.468       .  S
O1195     Cu1203   2.026       .  S
O1195      C1205   1.280       .  A
O1196     Cu1203   2.024       .  S
O1196      C1206   1.279       .  A
O1197     Cu1203   2.024       .  S
O1197      C1207   1.279       .  A
O1198     Cu1203   2.027       .  S
O1198      C1208   1.280       .  A
O1199     Cu1204   1.987       .  S
O1199      C1208   1.276       .  A
O1200     Cu1204   1.989       .  S
O1200      C1207   1.276       .  A
O1201     Cu1204   1.987       .  S
O1201      C1206   1.276       .  A
O1202     Cu1204   1.991       .  S
O1202      C1205   1.276       .  A
Cu1203    Cu1204   2.371       .  S
C1205      C1686   1.479       .  S
C1206      C1409   1.478       .  S
C1207      C1927   1.483       .  S
C1208      C1504   1.483       .  S
O1209     Cu1217   2.021       .  S
O1209      C1219   1.279       .  A
O1210     Cu1217   2.016       .  S
O1210      C1220   1.279       .  A
O1211     Cu1217   2.023       .  S
O1211      C1221   1.280       .  A
O1212     Cu1217   2.021       .  S
O1212      C1222   1.279       .  A
O1213     Cu1218   1.988       .  S
O1213      C1222   1.276       .  A
O1214     Cu1218   1.987       .  S
O1214      C1221   1.275       .  A
O1215     Cu1218   1.994       .  S
O1215      C1220   1.277       .  A
O1216     Cu1218   1.987       .  S
O1216      C1219   1.275       .  A
Cu1217    Cu1218   2.372       .  S
C1219      C1591   1.471       .  S
C1220      C1661   1.486       .  S
C1221      C1745   1.477       .  S
C1222      C1493   1.479       .  S
O1223     Cu1231   2.022       .  S
O1223      C1233   1.279       .  A
O1224     Cu1231   2.022       .  S
O1224      C1234   1.280       .  A
O1225     Cu1231   2.021       .  S
O1225      C1235   1.279       .  A
O1226     Cu1231   2.020       .  S
O1226      C1236   1.279       .  A
O1227     Cu1232   1.998       .  S
O1227      C1236   1.277       .  A
O1228     Cu1232   1.992       .  S
O1228      C1235   1.275       .  A
O1229     Cu1232   1.992       .  S
O1229      C1234   1.276       .  A
O1230     Cu1232   1.993       .  S
O1230      C1233   1.276       .  A
Cu1231    Cu1232   2.376       .  S
C1233      C1773   1.475       .  S
C1234      C1941   1.479       .  S
C1235      C1857   1.468       .  S
C1236      C1675   1.476       .  S
O1237     Cu1245   2.019   1_545  S
O1237      C1247   1.278       .  A
O1238     Cu1245   2.017   1_655  S
O1238      C1248   1.278       .  A
O1239     Cu1245   2.025   1_645  S
O1239      C1249   1.280       .  A
O1240     Cu1245   2.016       .  S
O1240      C1250   1.278       .  A
O1241     Cu1246   1.996       .  S
O1241      C1250   1.276       .  A
O1242     Cu1246   1.989   1_645  S
O1242      C1249   1.275       .  A
O1243     Cu1246   1.998   1_655  S
O1243      C1248   1.276       .  A
O1244     Cu1246   1.997   1_545  S
O1244      C1247   1.276       .  A
Cu1245    Cu1246   2.376       .  S
C1247      C1367   1.472       .  S
C1248      C1549   1.468       .  S
C1249      C1465   1.479       .  S
C1250      C1633   1.468       .  S
O1251     Cu1259   1.995   1_545  S
O1251      C1261   1.275       .  A
O1252     Cu1259   1.994   1_655  S
O1252      C1262   1.275       .  A
O1253     Cu1259   1.986   1_645  S
O1253      C1263   1.276       .  A
O1254     Cu1259   1.993       .  S
O1254      C1264   1.277       .  A
O1255     Cu1260   2.021       .  S
O1255      C1264   1.279       .  A
O1256     Cu1260   2.028   1_645  S
O1256      C1263   1.280       .  A
O1257     Cu1260   2.018   1_655  S
O1257      C1262   1.279       .  A
O1258     Cu1260   2.020   1_545  S
O1258      C1261   1.279       .  A
Cu1259    Cu1260   2.375       .  S
C1261      C1882   1.470       .  S
C1262      C1731   1.469       .  S
C1263      C1969   1.483       .  S
C1264      C1801   1.481       .  S
O1265     Cu1273   2.023   1_546  S
O1265      C1275   1.279       .  A
O1266     Cu1273   2.016       .  S
O1266      C1276   1.279       .  A
O1267     Cu1273   2.022   1_545  S
O1267      C1277   1.279       .  A
O1268     Cu1273   2.024   1_556  S
O1268      C1278   1.280       .  A
O1269     Cu1274   1.990   1_556  S
O1269      C1278   1.275       .  A
O1270     Cu1274   1.990   1_545  S
O1270      C1277   1.276       .  A
O1271     Cu1274   2.000       .  S
O1271      C1276   1.277       .  A
O1272     Cu1274   1.991   1_546  S
O1272      C1275   1.276       .  A
Cu1273    Cu1274   2.373       .  S
C1275      C1871   1.474       .  S
C1276      C1619   1.480       .  S
C1277      C1381   1.473       .  S
C1278      C1815   1.479       .  S
O1279     Cu1287   2.021   1_556  S
O1279      C1289   1.279       .  A
O1280     Cu1287   2.017   1_655  S
O1280      C1290   1.279       .  A
O1281     Cu1287   2.019   1_656  S
O1281      C1291   1.279       .  A
O1282     Cu1287   2.015       .  S
O1282      C1292   1.278       .  A
O1283     Cu1288   1.994       .  S
O1283      C1292   1.276       .  A
O1284     Cu1288   1.989   1_656  S
O1284      C1291   1.276       .  A
O1285     Cu1288   1.993   1_655  S
O1285      C1290   1.277       .  A
O1286     Cu1288   1.991   1_556  S
O1286      C1289   1.276       .  A
Cu1287    Cu1288   2.374       .  S
C1289      C1896   1.472       .  S
C1290      C1479   1.480       .  S
C1291      C1955   1.481       .  S
C1292      C1392   1.467       .  S
O1293     Cu1301   1.998   1_546  S
O1293      C1303   1.276       .  A
O1294     Cu1301   1.990       .  S
O1294      C1304   1.275       .  A
O1295     Cu1301   1.991   1_545  S
O1295      C1305   1.276       .  A
O1296     Cu1301   1.991   1_556  S
O1296      C1306   1.275       .  A
O1297     Cu1302   2.021   1_556  S
O1297      C1306   1.279       .  A
O1298     Cu1302   2.020   1_545  S
O1298      C1305   1.279       .  A
O1299     Cu1302   2.024       .  S
O1299      C1304   1.280       .  A
O1300     Cu1302   2.016   1_546  S
O1300      C1303   1.279       .  A
Cu1301    Cu1302   2.375       .  S
C1303      C1983   1.477       .  S
C1304      C1563   1.474       .  S
C1305      C1451   1.473       .  S
C1306      C1717   1.473       .  S
O1307     Cu1315   2.014   1_556  S
O1307      C1317   1.278       .  A
O1308     Cu1315   2.015   1_655  S
O1308      C1318   1.279       .  A
O1309     Cu1315   2.013       .  S
O1309      C1319   1.277       .  A
O1310     Cu1315   2.020   1_556  S
O1310      C1320   1.279   1_455  A
O1311     Cu1316   2.013   1_656  S
O1311      C1320   1.278       .  A
O1312     Cu1316   2.018       .  S
O1312      C1319   1.278       .  A
O1313     Cu1316   2.016   1_655  S
O1313      C1318   1.279       .  A
O1314     Cu1316   2.017   1_556  S
O1314      C1317   1.279       .  A
Cu1315    Cu1316   2.372       .  S
C1317      C1787   1.483       .  S
C1318      C1532   1.482       .  S
C1319      C1647   1.476       .  S
C1320      C1703   1.477       .  S
C1321      C1322   1.405       .  A
C1321      C1326   1.401       .  A
C1321      H1328   1.084       .  S
C1322      C1323   1.412       .  A
C1323      C1324   1.404       .  A
C1323      N1330   1.438       .  S
C1324      C1325   1.403       .  A
C1324      H1329   1.084       .  S
C1325      C1326   1.418       .  A
C1326      N1327   1.438       .  S
N1327      H1331   1.045       .  S
N1327      H1332   1.042       .  S
N1330      H1333   1.046       .  S
N1330      H1334   1.046       .  S
C1335      C1336   1.405       .  A
C1335      C1340   1.399       .  A
C1335      H1342   1.083       .  S
C1336      C1337   1.420       .  A
C1337      C1338   1.401       .  A
C1337      N1344   1.431       .  S
C1338      C1339   1.401       .  A
C1338      H1343   1.084       .  S
C1339      C1340   1.415       .  A
C1340      N1341   1.440       .  S
N1341      H1345   1.046       .  S
N1341      H1346   1.043       .  S
N1344      H1347   1.045       .  S
N1344      H1348   1.042       .  S
C1349      C1350   1.405       .  A
C1349      C1354   1.400       .  A
C1349      H1356   1.083       .  S
C1350      C1351   1.412       .  A
C1351      C1352   1.403       .  A
C1351      N1358   1.432       .  S
C1352      C1353   1.400       .  A
C1352      H1357   1.084       .  S
C1353      C1354   1.415       .  A
C1354      N1355   1.440       .  S
N1355      H1359   1.046       .  S
N1355      H1360   1.043       .  S
N1358      H1361   1.046       .  S
N1358      H1362   1.046       .  S
C1363      C1364   1.407       .  A
C1363      C1368   1.407       .  A
C1363      H1370   1.083       .  S
C1364      C1365   1.414       .  A
C1365      C1366   1.404       .  A
C1365      N1372   1.437       .  S
C1366      C1367   1.400       .  A
C1366      H1371   1.084       .  S
C1367      C1368   1.408       .  A
C1368      N1369   1.438       .  S
N1369      H1373   1.046       .  S
N1369      H1374   1.045       .  S
N1372      H1375   1.046       .  S
N1372      H1376   1.046       .  S
C1377      C1378   1.407       .  A
C1377      C1382   1.408       .  A
C1377      H1384   1.084       .  S
C1378      C1379   1.416       .  A
C1379      C1380   1.395       .  A
C1379      N1386   1.432       .  S
C1380      C1381   1.401       .  A
C1380      H1385   1.084       .  S
C1381      C1382   1.409       .  A
C1382      N1383   1.438       .  S
N1383      H1387   1.046       .  S
N1383      H1388   1.046       .  S
N1386      H1389   1.045       .  S
N1386      H1390   1.043       .  S
C1391      C1392   1.400       .  A
C1391      C1396   1.404       .  A
C1391      H1398   1.084       .  S
C1392      C1393   1.413       .  A
C1393      C1394   1.400       .  A
C1393      N1400   1.440       .  S
C1394      C1395   1.407       .  A
C1394      H1399   1.083       .  S
C1395      C1396   1.414       .  A
C1396      N1397   1.431       .  S
N1397      H1401   1.046       .  S
N1397      H1402   1.046       .  S
N1400      H1403   1.043       .  S
N1400      H1404   1.046       .  S
C1405      C1406   1.405       .  A
C1405      C1410   1.403       .  A
C1405      H1412   1.084       .  S
C1406      C1407   1.418       .  A
C1407      C1408   1.398       .  A
C1407      N1414   1.441       .  S
C1408      C1409   1.403       .  A
C1408      H1413   1.085       .  S
C1409      C1410   1.418       .  A
C1410      N1411   1.438       .  S
N1411      H1415   1.045       .  S
N1411      H1416   1.041       .  S
N1414      H1417   1.041       .  S
N1414      H1418   1.046       .  S
C1419      C1420   1.407       .  A
C1419      C1424   1.401       .  A
C1419      H1426   1.083       .  S
C1420      C1421   1.415       .  A
C1421      C1422   1.403       .  A
C1421      N1428   1.437       .  S
C1422      C1423   1.399       .  A
C1422      H1427   1.084       .  S
C1423      C1424   1.413       .  A
C1424      N1425   1.439       .  S
N1425      H1429   1.045       .  S
N1425      H1430   1.043       .  S
N1428      H1431   1.045       .  S
N1428      H1432   1.046       .  S
C1433      C1434   1.399       .  A
C1433      C1438   1.395       .  A
C1433      H1440   1.085       .  S
C1434      C1435   1.417       .  A
C1435      C1436   1.404       .  A
C1435      N1442   1.438       .  S
C1436      C1437   1.407       .  A
C1436      H1441   1.084       .  S
C1437      C1438   1.421       .  A
C1438      N1439   1.432       .  S
N1439      H1443   1.043       .  S
N1439      H1444   1.045       .  S
N1442      H1445   1.042       .  S
N1442      H1446   1.045       .  S
C1447      C1448   1.406       .  A
C1447      C1452   1.408       .  A
C1447      H1454   1.084       .  S
C1448      C1449   1.416       .  A
C1449      C1450   1.395       .  A
C1449      N1456   1.432       .  S
C1450      C1451   1.401       .  A
C1450      H1455   1.084       .  S
C1451      C1452   1.409       .  A
C1452      N1453   1.438       .  S
N1453      H1457   1.046       .  S
N1453      H1458   1.046       .  S
N1456      H1459   1.045       .  S
N1456      H1460   1.043       .  S
C1461      C1462   1.400       .  A
C1461      C1466   1.399       .  A
C1461      H1468   1.084       .  S
C1462      C1463   1.411       .  A
C1463      C1464   1.408       .  A
C1463      N1470   1.437       .  S
C1464      C1465   1.404       .  A
C1464      H1469   1.084       .  S
C1465      C1466   1.411       .  A
C1466      N1467   1.433       .  S
N1467      H1471   1.046       .  S
N1467      H1472   1.046       .  S
N1470      H1473   1.046       .  S
N1470      H1474   1.046       .  S
C1475      C1476   1.403       .  A
C1475      C1480   1.407       .  A
C1475      H1482   1.084       .  S
C1476      C1477   1.408       .  A
C1477      C1478   1.403       .  A
C1477      N1484   1.438       .  S
C1478      C1479   1.405       .  A
C1478      H1483   1.084       .  S
C1479      C1480   1.412       .  A
C1480      N1481   1.438       .  S
N1481      H1485   1.046       .  S
N1481      H1486   1.046   1_655  S
N1484      H1487   1.044       .  S
N1484      H1488   1.046       .  S
C1489      C1490   1.405       .  A
C1489      C1494   1.408       .  A
C1489      H1496   1.084       .  S
C1490      C1491   1.417       .  A
C1491      C1492   1.398       .  A
C1491      N1498   1.440       .  S
C1492      C1493   1.403       .  A
C1492      H1497   1.084       .  S
C1493      C1494   1.411       .  A
C1494      N1495   1.438       .  S
N1495      H1499   1.046       .  S
N1495      H1500   1.045       .  S
N1498      H1501   1.041       .  S
N1498      H1502   1.046       .  S
C1503      C1504   1.405       .  A
C1503      C1508   1.401       .  A
C1503      H1510   1.084       .  S
C1504      C1505   1.414       .  A
C1505      C1506   1.409       .  A
C1505      N1512   1.437       .  S
C1506      C1507   1.404       .  A
C1506      H1511   1.084       .  S
C1507      C1508   1.408       .  A
C1508      N1509   1.438       .  S
N1509      H1513   1.046       .  S
N1509      H1514   1.044       .  S
N1512      H1515   1.046       .  S
N1512      H1516   1.046       .  S
C1517      C1518   1.397       .  A
C1517      C1522   1.402       .  A
C1517      H1524   1.084       .  S
C1518      C1519   1.406       .  A
C1519      C1520   1.397       .  A
C1519      N1526   1.432       .  S
C1520      C1521   1.410       .  A
C1520      H1525   1.082       .  S
C1521      C1522   1.426       .  A
C1522      N1523   1.430       .  S
N1523      H1527   1.043       .  S
N1523      H1528   1.045       .  S
N1526      H1529   1.046       .  S
N1526      H1530   1.043       .  S
C1531      C1532   1.404       .  A
C1531      C1536   1.401       .  A
C1531      H1538   1.084       .  S
C1532      C1533   1.420       .  A
C1533      C1534   1.405       .  A
C1533      N1540   1.440       .  S
C1534      C1535   1.405       .  A
C1534      H1539   1.084       .  S
C1535      C1536   1.416       .  A
C1536      N1537   1.432       .  S
N1537      H1541   1.043       .  S
N1537      H1542   1.045       .  S
N1540      H1543   1.041   1_655  S
N1540      H1544   1.046   1_655  S
C1545      C1546   1.407       .  A
C1545      C1550   1.400       .  A
C1545      H1552   1.082       .  S
C1546      C1547   1.416       .  A
C1547      C1548   1.405       .  A
C1547      N1554   1.431       .  S
C1548      C1549   1.399       .  A
C1548      H1553   1.084       .  S
C1549      C1550   1.413       .  A
C1550      N1551   1.439       .  S
N1551      H1555   1.046       .  S
N1551      H1556   1.043       .  S
N1554      H1557   1.046       .  S
N1554      H1558   1.046       .  S
C1559      C1560   1.406       .  A
C1559      C1564   1.403       .  A
C1559      H1566   1.084       .  S
C1560      C1561   1.413       .  A
C1561      C1562   1.403       .  A
C1561      N1568   1.438       .  S
C1562      C1563   1.402       .  A
C1562      H1567   1.084       .  S
C1563      C1564   1.417       .  A
C1564      N1565   1.438       .  S
N1565      H1569   1.045       .  S
N1565      H1570   1.042       .  S
N1568      H1571   1.046       .  S
N1568      H1572   1.046       .  S
C1573      C1574   1.406       .  A
C1573      C1578   1.406       .  A
C1573      H1580   1.084       .  S
C1574      C1575   1.414       .  A
C1575      C1576   1.393       .  A
C1575      N1582   1.432       .  S
C1576      C1577   1.402       .  A
C1576      H1581   1.083       .  S
C1577      C1578   1.419       .  A
C1578      N1579   1.439       .  S
N1579      H1583   1.046       .  S
N1579      H1584   1.041       .  S
N1582      H1585   1.045       .  S
N1582      H1586   1.042       .  S
C1587      C1588   1.406       .  A
C1587      C1592   1.402       .  A
C1587      H1594   1.084       .  S
C1588      C1589   1.412       .  A
C1589      C1590   1.401       .  A
C1589      N1596   1.438       .  S
C1590      C1591   1.402       .  A
C1590      H1595   1.083       .  S
C1591      C1592   1.416       .  A
C1592      N1593   1.438       .  S
N1593      H1597   1.045       .  S
N1593      H1598   1.042       .  S
N1596      H1599   1.046       .  S
N1596      H1600   1.046       .  S
C1601      C1602   1.406       .  A
C1601      C1606   1.403       .  A
C1601      H1608   1.082       .  S
C1602      C1603   1.417       .  A
C1603      C1604   1.409       .  A
C1603      N1610   1.437       .  S
C1604      C1605   1.400       .  A
C1604      H1609   1.084       .  S
C1605      C1606   1.408       .  A
C1606      N1607   1.439       .  S
N1607      H1611   1.046       .  S
N1607      H1612   1.045       .  S
N1610      H1613   1.046       .  S
N1610      H1614   1.046       .  S
C1615      C1616   1.404       .  A
C1615      C1620   1.408       .  A
C1615      H1622   1.084       .  S
C1616      C1617   1.413       .  A
C1617      C1618   1.396       .  A
C1617      N1624   1.432       .  S
C1618      C1619   1.404       .  A
C1618      H1623   1.084       .  S
C1619      C1620   1.413       .  A
C1620      N1621   1.438       .  S
N1621      H1625   1.046       .  S
N1621      H1626   1.046       .  S
N1624      H1627   1.045       .  S
N1624      H1628   1.043       .  S
C1629      C1630   1.407       .  A
C1629      C1634   1.403       .  A
C1629      H1636   1.082       .  S
C1630      C1631   1.418       .  A
C1631      C1632   1.407       .  A
C1631      N1638   1.437       .  S
C1632      C1633   1.399       .  A
C1632      H1637   1.084       .  S
C1633      C1634   1.406       .  A
C1634      N1635   1.439       .  S
N1635      H1639   1.046       .  S
N1635      H1640   1.045       .  S
N1638      H1641   1.046       .  S
N1638      H1642   1.046       .  S
C1643      C1644   1.408       .  A
C1643      C1648   1.409       .  A
C1643      H1650   1.083       .  S
C1644      C1645   1.415       .  A
C1645      C1646   1.405       .  A
C1645      N1652   1.431       .  S
C1646      C1647   1.400       .  A
C1646      H1651   1.084       .  S
C1647      C1648   1.409       .  A
C1648      N1649   1.438       .  S
N1649      H1653   1.046       .  S
N1649      H1654   1.045       .  S
N1652      H1655   1.046       .  S
N1652      H1656   1.046       .  S
C1657      C1658   1.401       .  A
C1657      C1662   1.407       .  A
C1657      H1664   1.084       .  S
C1658      C1659   1.405       .  A
C1659      C1660   1.402       .  A
C1659      N1666   1.438       .  S
C1660      C1661   1.408       .  A
C1660      H1665   1.083       .  S
C1661      C1662   1.417       .  A
C1662      N1663   1.438       .  S
N1663      H1667   1.046       .  S
N1663      H1668   1.046       .  S
N1666      H1669   1.045       .  S
N1666      H1670   1.046       .  S
C1671      C1672   1.406       .  A
C1671      C1676   1.404       .  A
C1671      H1678   1.084       .  S
C1672      C1673   1.413       .  A
C1673      C1674   1.404       .  A
C1673      N1680   1.438       .  S
C1674      C1675   1.402       .  A
C1674      H1679   1.084       .  S
C1675      C1676   1.417       .  A
C1676      N1677   1.438       .  S
N1677      H1681   1.045       .  S
N1677      H1682   1.042       .  S
N1680      H1683   1.046       .  S
N1680      H1684   1.046       .  S
C1685      C1686   1.404       .  A
C1685      C1690   1.410       .  A
C1685      H1692   1.084       .  S
C1686      C1687   1.411       .  A
C1687      C1688   1.400       .  A
C1687      N1694   1.433       .  S
C1688      C1689   1.400       .  A
C1688      H1693   1.084       .  S
C1689      C1690   1.413       .  A
C1690      N1691   1.437       .  S
N1691      H1695   1.046       .  S
N1691      H1696   1.046       .  S
N1694      H1697   1.046       .  S
N1694      H1698   1.046       .  S
C1699      C1700   1.407       .  A
C1699      C1704   1.409       .  A
C1699      H1706   1.083       .  S
C1700      C1701   1.414       .  A
C1701      C1702   1.405       .  A
C1701      N1708   1.432       .  S
C1702      C1703   1.401       .  A
C1702      H1707   1.084       .  S
C1703      C1704   1.409       .  A
C1704      N1705   1.438       .  S
N1705      H1709   1.046       .  S
N1705      H1710   1.046       .  S
N1708      H1711   1.046       .  S
N1708      H1712   1.045       .  S
C1713      C1714   1.406       .  A
C1713      C1718   1.402       .  A
C1713      H1720   1.084       .  S
C1714      C1715   1.412       .  A
C1715      C1716   1.403       .  A
C1715      N1722   1.438       .  S
C1716      C1717   1.402       .  A
C1716      H1721   1.084       .  S
C1717      C1718   1.416       .  A
C1718      N1719   1.438       .  S
N1719      H1723   1.045       .  S
N1719      H1724   1.042       .  S
N1722      H1725   1.046       .  S
N1722      H1726   1.046       .  S
C1727      C1728   1.407       .  A
C1727      C1732   1.402       .  A
C1727      H1734   1.083       .  S
C1728      C1729   1.416       .  A
C1729      C1730   1.404       .  A
C1729      N1736   1.437       .  S
C1730      C1731   1.400       .  A
C1730      H1735   1.084       .  S
C1731      C1732   1.414       .  A
C1732      N1733   1.439       .  S
N1733      H1737   1.045       .  S
N1733      H1738   1.043   1_655  S
N1736      H1739   1.045       .  S
N1736      H1740   1.046       .  S
C1741      C1742   1.401       .  A
C1741      C1746   1.401       .  A
C1741      H1748   1.084       .  S
C1742      C1743   1.419       .  A
C1743      C1744   1.403       .  A
C1743      N1750   1.437       .  S
C1744      C1745   1.403       .  A
C1744      H1749   1.084       .  S
C1745      C1746   1.412       .  A
C1746      N1747   1.438       .  S
N1747      H1751   1.046       .  S
N1747      H1752   1.045       .  S
N1750      H1753   1.042       .  S
N1750      H1754   1.045       .  S
C1755      C1756   1.402       .  A
C1755      C1760   1.398       .  A
C1755      H1762   1.084       .  S
C1756      C1757   1.414       .  A
C1757      C1758   1.409       .  A
C1757      N1764   1.437       .  S
C1758      C1759   1.403       .  A
C1758      H1763   1.084       .  S
C1759      C1760   1.417       .  A
C1760      N1761   1.438       .  S
N1761      H1765   1.045       .  S
N1761      H1766   1.042       .  S
N1764      H1767   1.046       .  S
N1764      H1768   1.046       .  S
C1769      C1770   1.402       .  A
C1769      C1774   1.398       .  A
C1769      H1776   1.084       .  S
C1770      C1771   1.414       .  A
C1771      C1772   1.408       .  A
C1771      N1778   1.437       .  S
C1772      C1773   1.403       .  A
C1772      H1777   1.084       .  S
C1773      C1774   1.418       .  A
C1774      N1775   1.438       .  S
N1775      H1779   1.045       .  S
N1775      H1780   1.043       .  S
N1778      H1781   1.046       .  S
N1778      H1782   1.046       .  S
C1783      C1784   1.405       .  A
C1783      C1788   1.408       .  A
C1783      H1790   1.084       .  S
C1784      C1785   1.416       .  A
C1785      C1786   1.401       .  A
C1785      N1792   1.432       .  S
C1786      C1787   1.403       .  A
C1786      H1791   1.084       .  S
C1787      C1788   1.413       .  A
C1788      N1789   1.438       .  S
N1789      H1793   1.046       .  S
N1789      H1794   1.045       .  S
N1792      H1795   1.045       .  S
N1792      H1796   1.043       .  S
C1797      C1798   1.404       .  A
C1797      C1802   1.403       .  A
C1797      H1804   1.084       .  S
C1798      C1799   1.416       .  A
C1799      C1800   1.398       .  A
C1799      N1806   1.440       .  S
C1800      C1801   1.405       .  A
C1800      H1805   1.085       .  S
C1801      C1802   1.420       .  A
C1802      N1803   1.438       .  S
N1803      H1807   1.045       .  S
N1803      H1808   1.039       .  S
N1806      H1809   1.041       .  S
N1806      H1810   1.046       .  S
C1811      C1812   1.399       .  A
C1811      C1816   1.399       .  A
C1811      H1818   1.084       .  S
C1812      C1813   1.412       .  A
C1813      C1814   1.408       .  A
C1813      N1820   1.437       .  S
C1814      C1815   1.404       .  A
C1814      H1819   1.084       .  S
C1815      C1816   1.412       .  A
C1816      N1817   1.433       .  S
N1817      H1821   1.045       .  S
N1817      H1822   1.046       .  S
N1820      H1823   1.046       .  S
N1820      H1824   1.046       .  S
C1825      C1826   1.406       .  A
C1825      C1830   1.408       .  A
C1825      H1832   1.084       .  S
C1826      C1827   1.415       .  A
C1827      C1828   1.396       .  A
C1827      N1834   1.432       .  S
C1828      C1829   1.402       .  A
C1828      H1833   1.084       .  S
C1829      C1830   1.409       .  A
C1830      N1831   1.438       .  S
N1831      H1835   1.046       .  S
N1831      H1836   1.046       .  S
N1834      H1837   1.045       .  S
N1834      H1838   1.043       .  S
C1839      C1840   1.401       .  A
C1839      C1844   1.406       .  A
C1839      H1846   1.084       .  S
C1840      C1841   1.415       .  A
C1841      C1842   1.398       .  A
C1841      N1848   1.439       .  S
C1842      C1843   1.403       .  A
C1842      H1847   1.084       .  S
C1843      C1844   1.414       .  A
C1844      N1845   1.437       .  S
N1845      H1849   1.046       .  S
N1845      H1850   1.046       .  S
N1848      H1851   1.043       .  S
N1848      H1852   1.045       .  S
C1853      C1854   1.408       .  A
C1853      C1858   1.402       .  A
C1853      H1860   1.083       .  S
C1854      C1855   1.415       .  A
C1855      C1856   1.403       .  A
C1855      N1862   1.437       .  S
C1856      C1857   1.399       .  A
C1856      H1861   1.083       .  S
C1857      C1858   1.414       .  A
C1858      N1859   1.439       .  S
N1859      H1863   1.045       .  S
N1859      H1864   1.043       .  S
N1862      H1865   1.045       .  S
N1862      H1866   1.046       .  S
C1867      C1868   1.403       .  A
C1867      C1872   1.403       .  A
C1867      H1874   1.084       .  S
C1868      C1869   1.417       .  A
C1869      C1870   1.401       .  A
C1869      N1876   1.432       .  S
C1870      C1871   1.402       .  A
C1870      H1875   1.084       .  S
C1871      C1872   1.410       .  A
C1872      N1873   1.438       .  S
N1873      H1877   1.046       .  S
N1873      H1878   1.046       .  S
N1876      H1879   1.045       .  S
N1876      H1880   1.043       .  S
C1881      C1882   1.401       .  A
C1881      C1886   1.404       .  A
C1881      H1888   1.084       .  S
C1882      C1883   1.414       .  A
C1883      C1884   1.401       .  A
C1883      N1890   1.438       .  S
C1884      C1885   1.406       .  A
C1884      H1889   1.083       .  S
C1885      C1886   1.414       .  A
C1886      N1887   1.437       .  S
N1887      H1891   1.046       .  S
N1887      H1892   1.046       .  S
N1890      H1893   1.041       .  S
N1890      H1894   1.045       .  S
C1895      C1896   1.401       .  A
C1895      C1900   1.401       .  A
C1895      H1902   1.084       .  S
C1896      C1897   1.416       .  A
C1897      C1898   1.399       .  A
C1897      N1904   1.440       .  S
C1898      C1899   1.404       .  A
C1898      H1903   1.084       .  S
C1899      C1900   1.418       .  A
C1900      N1901   1.432       .  S
N1901      H1905   1.042       .  S
N1901      H1906   1.045       .  S
N1904      H1907   1.043       .  S
N1904      H1908   1.046       .  S
C1909      C1910   1.408       .  A
C1909      C1914   1.402       .  A
C1909      H1916   1.083       .  S
C1910      C1911   1.416       .  A
C1911      C1912   1.407       .  A
C1911      N1918   1.438       .  S
C1912      C1913   1.401       .  A
C1912      H1917   1.084       .  S
C1913      C1914   1.406       .  A
C1914      N1915   1.438       .  S
N1915      H1919   1.046       .  S
N1915      H1920   1.045       .  S
N1918      H1921   1.046       .  S
N1918      H1922   1.046       .  S
C1923      C1924   1.404       .  A
C1923      C1928   1.408       .  A
C1923      H1930   1.084       .  S
C1924      C1925   1.415       .  A
C1925      C1926   1.398       .  A
C1925      N1932   1.440       .  S
C1926      C1927   1.405       .  A
C1926      H1931   1.084       .  S
C1927      C1928   1.413       .  A
C1928      N1929   1.437       .  S
N1929      H1933   1.046       .  S
N1929      H1934   1.045       .  S
N1932      H1935   1.041       .  S
N1932      H1936   1.046       .  S
C1937      C1938   1.400       .  A
C1937      C1942   1.403       .  A
C1937      H1944   1.084       .  S
C1938      C1939   1.418       .  A
C1939      C1940   1.403       .  A
C1939      N1946   1.438       .  S
C1940      C1941   1.403       .  A
C1940      H1945   1.084       .  S
C1941      C1942   1.414       .  A
C1942      N1943   1.438       .  S
N1943      H1947   1.046       .  S
N1943      H1948   1.045       .  S
N1946      H1949   1.042       .  S
N1946      H1950   1.045       .  S
C1951      C1952   1.404       .  A
C1951      C1956   1.407       .  A
C1951      H1958   1.084       .  S
C1952      C1953   1.415       .  A
C1953      C1954   1.398       .  A
C1953      N1960   1.440       .  S
C1954      C1955   1.405       .  A
C1954      H1959   1.084       .  S
C1955      C1956   1.413       .  A
C1956      N1957   1.438       .  S
N1957      H1961   1.046       .  S
N1957      H1962   1.045       .  S
N1960      H1963   1.041       .  S
N1960      H1964   1.046       .  S
C1965      C1966   1.403       .  A
C1965      C1970   1.408       .  A
C1965      H1972   1.084       .  S
C1966      C1967   1.408       .  A
C1967      C1968   1.402       .  A
C1967      N1974   1.438       .  S
C1968      C1969   1.406       .  A
C1968      H1973   1.084       .  S
C1969      C1970   1.414       .  A
C1970      N1971   1.437       .  S
N1971      H1975   1.046       .  S
N1971      H1976   1.046   1_655  S
N1974      H1977   1.044       .  S
N1974      H1978   1.046       .  S
C1979      C1980   1.402       .  A
C1979      C1984   1.397       .  A
C1979      H1986   1.084       .  S
C1980      C1981   1.413       .  A
C1981      C1982   1.407       .  A
C1981      N1988   1.437       .  S
C1982      C1983   1.403       .  A
C1982      H1987   1.084       .  S
C1983      C1984   1.415       .  A
C1984      N1985   1.433       .  S
N1985      H1989   1.044       .  S
N1985      H1990   1.046       .  S
N1988      H1991   1.046       .  S
N1988      H1992   1.046       .  S
