geometry optimzed in LAMMPS
_audit_creation_date              2020-11-30 
_audit_creation_method            'lammps2cif' 
_symmetry_space_group_name_H-M    'P1' 
_symmetry_Int_Tables_number       1 
_symmetry_cell_setting            triclinic 
loop_ 
_symmetry_equiv_pos_as_xyz 
  x,y,z 
_cell_length_a                    47.01046916 
_cell_length_b                    34.69429939449848 
_cell_length_c                    24.827565744068323 
_cell_angle_alpha                 89.99812630261611 
_cell_angle_beta                  89.99954211960485 
_cell_angle_gamma                 89.99834358263979 
loop_ 
_atom_site_label 
_atom_site_type_symbol 
_atom_site_fract_x 
_atom_site_fract_y 
_atom_site_fract_z 
_atom_site_charge 
C1          C  0.13475008  0.55396226  0.72289159     0.83500
N2          N  0.15157006  0.57732216  0.75303742    -0.74800
C3          C  0.14364848  0.58720509  0.80365489     0.86000
N4          N  0.11876629  0.57402163  0.82404917    -0.74700
C5          C  0.10185486  0.55064784  0.79422517     0.86100
N6          N  0.10975726  0.54062800  0.74338296    -0.76400
C7          C  0.28885934  0.47927500  0.18118217     0.83500
N8          N  0.27209707  0.45537696  0.15174446    -0.74800
C9          C  0.27996252  0.44493746  0.10130794     0.86000
N10         N  0.30471059  0.45815538  0.08036050    -0.74700
C11         C  0.32156016  0.48207219  0.10946886     0.86100
N12         N  0.31370685  0.49265694  0.16011591    -0.76400
Zn13       Zn  0.20435766  0.54369032  0.38119156     1.49700
Zn14       Zn  0.17792861  0.48843653  0.47208573     1.49400
Zn15       Zn  0.24478912  0.48436607  0.44552375     1.49100
Zn16       Zn  0.21854799  0.55908492  0.50524446     1.49500
O17         O  0.21147556  0.51882008  0.45103887    -1.80800
O18         O  0.16552946  0.52971451  0.35175007    -0.71400
O19         O  0.18793997  0.43211918  0.48155509    -0.71200
O20         O  0.26114343  0.48515432  0.36974283    -0.70800
O21         O  0.14729454  0.49171563  0.41524081    -0.71400
O22         O  0.23330851  0.52671889  0.32617912    -0.71000
O23         O  0.23427218  0.42897960  0.46368040    -0.71600
O24         O  0.25753783  0.55268452  0.53805492    -0.71000
O25         O  0.16163924  0.50680909  0.54322167    -0.71800
O26         O  0.27578329  0.50102940  0.49746770    -0.71200
O27         O  0.19014108  0.55541442  0.56594716    -0.71600
O28         O  0.21630581  0.61299911  0.47331281    -0.71500
O29         O  0.20655255  0.60171027  0.38705056    -0.71300
C30         C  0.14550720  0.50877184  0.36998160     0.80500
C31         C  0.21093909  0.41303147  0.47721843     0.81000
C32         C  0.25418726  0.50341091  0.32721679     0.79900
C33         C  0.27759701  0.52855420  0.53123556     0.80300
C34         C  0.16910013  0.53340113  0.57558390     0.81400
C35         C  0.21144689  0.62488446  0.42568003     0.80500
C36         C  0.20815925  0.76663022  0.02077461     0.83500
N37         N  0.20468787  0.73256854  0.99465542    -0.74800
C38         C  0.19827127  0.73228635  0.94137033     0.86000
N39         N  0.19484169  0.76599660  0.91453776    -0.74700
C40         C  0.19829265  0.80001628  0.94056962     0.86100
N41         N  0.20471122  0.80036028  0.99383739    -0.76400
C42         C  0.21269535  0.80300194  0.37067868     0.83500
N43         N  0.21440588  0.80271552  0.31611973    -0.74800
C44         C  0.21550880  0.76885879  0.28903871     0.86000
N45         N  0.21480673  0.73513638  0.31647030    -0.74700
C46         C  0.21310922  0.73507960  0.37101514     0.86100
N47         N  0.21202944  0.76909713  0.39837672    -0.76400
C48         C  0.13441023  0.97969089  0.72377376     0.83500
N49         N  0.10952026  0.99293980  0.74481849    -0.74800
C50         C  0.10172666  0.98242804  0.79552981     0.86000
N51         N  0.11866600  0.95865644  0.82469890    -0.74700
C52         C  0.14345876  0.94556693  0.80376228     0.86100
N53         N  0.15126355  0.95595314  0.75327226    -0.76400
C54         C  0.28759723  0.05401048  0.18068305     0.83500
N55         N  0.27093681  0.07773828  0.15076164    -0.74800
C56         C  0.27908109  0.08812790  0.10046230     0.86000
N57         N  0.30402427  0.07506952  0.08016240    -0.74700
C58         C  0.32078625  0.05133795  0.10975017     0.86100
N59         N  0.31265416  0.04080767  0.16027084    -0.76400
Zn60       Zn  0.24421030  0.98809701  0.43143728     1.49700
Zn61       Zn  0.17737109  0.98455832  0.45868375     1.49400
Zn62       Zn  0.21818462  0.04368169  0.52239707     1.49100
Zn63       Zn  0.20374751  0.05898932  0.39841292     1.49500
O64         O  0.21081748  0.01875786  0.45268491    -1.80800
O65         O  0.23391100  0.93184993  0.42224335    -0.71400
O66         O  0.16128077  0.98539741  0.53466371    -0.71200
O67         O  0.25708458  0.02972372  0.55134864    -0.70800
O68         O  0.18761295  0.92913711  0.44058646    -0.71400
O69         O  0.27499322  0.99125638  0.48807188    -0.71000
O70         O  0.18952037  0.02663534  0.57787078    -0.71600
O71         O  0.20588925  0.11297699  0.43039692    -0.71000
O72         O  0.14632028  0.00122161  0.40687492    -0.71800
O73         O  0.21583338  0.10172287  0.51659417    -0.71200
O74         O  0.16475186  0.05245506  0.36555138    -0.71600
O75         O  0.23215574  0.05521639  0.33764309    -0.71500
O76         O  0.26042231  0.00628261  0.36007512    -0.71300
C77         C  0.21083097  0.91297760  0.42687476     0.80500
C78         C  0.16854572  0.00348773  0.57713839     0.81000
C79         C  0.27696684  0.00853368  0.53314433     0.79900
C80         C  0.21077132  0.12488957  0.47802361     0.80300
C81         C  0.14460587  0.02850153  0.37270202     0.81400
C82         C  0.25305739  0.03299423  0.32780847     0.80500
C83         C  0.20826511  0.30300485  0.53344107     0.83500
N84         N  0.20927405  0.26911851  0.50571972    -0.74800
C85         C  0.20804412  0.23505982  0.53298253     0.86000
N86         N  0.20588568  0.23506651  0.58748388    -0.74700
C87         C  0.20484073  0.26876936  0.61495227     0.86100
N88         N  0.20609520  0.30265428  0.58794540    -0.76400
C89         C  0.21356001  0.26726809  0.88303302     0.83500
N90         N  0.21730939  0.30104644  0.90974836    -0.74800
C91         C  0.22425276  0.30075850  0.96279675     0.86000
N92         N  0.22791320  0.26677226  0.98879077    -0.74700
C93         C  0.22420891  0.23303051  0.96220613     0.86100
N94         N  0.21726430  0.23323506  0.90915058    -0.76400
C95         C  0.03902900  0.47928053  0.22111047     0.83500
N96         N  0.06392287  0.49292074  0.24162313    -0.74800
C97         C  0.07184541  0.48308175  0.29251608     0.86000
N98         N  0.05501969  0.45963407  0.32242729    -0.74700
C99         C  0.03021766  0.44617350  0.30200922     0.86100
N100        N  0.02228853  0.45587425  0.25133238    -0.76400
C101        C  0.38454214  0.55500148  0.67994398     0.83500
N102        N  0.35964799  0.54180278  0.65884800    -0.74800
C103        C  0.35174520  0.55268440  0.60834784     0.86000
N104        N  0.36857205  0.57675169  0.57944356    -0.74700
C105        C  0.39335541  0.58981272  0.60041910     0.86100
N106        N  0.40128099  0.57906645  0.65070351    -0.76400
Zn107      Zn  0.49487229  0.48282560  0.95662855     1.49700
Zn108      Zn  0.46856601  0.55749362  0.89693414     1.49400
Zn109      Zn  0.42801824  0.48650354  0.92956643     1.49100
Zn110      Zn  0.45416324  0.54181333  0.02077462     1.49500
O111        O  0.46144740  0.51707307  0.95091600    -1.80800
O112        O  0.02575358  0.49934839  0.90448570    -0.71400
O113        O  0.43991119  0.55434605  0.83660652    -0.71200
O114        O  0.43828781  0.43014821  0.92028846    -0.70800
O115        O  0.00740606  0.55079188  0.86355121    -0.71400
O116        O  0.48454678  0.42735355  0.93898835    -0.71000
O117        O  0.41176088  0.50511878  0.85834604    -0.71600
O118        O  0.41519643  0.52807777  0.04966388    -0.71000
O119        O  0.46688428  0.61133786  0.92936413    -0.71800
O120        O  0.39722763  0.48972639  0.98630593    -0.71200
O121        O  0.45678377  0.59979965  0.01540706    -0.71600
O122        O  0.48292242  0.52467182  0.07597249    -0.71500
O123        O  0.01133127  0.48392558  0.03226116    -0.71300
C124        C  0.02748574  0.52670345  0.87045081     0.80500
C125        C  0.41900924  0.53218642  0.82654260     0.81000
C126        C  0.46133516  0.41120908  0.92519880     0.79900
C127        C  0.39526117  0.50700492  0.03139203     0.80300
C128        C  0.46205137  0.62307584  0.97708365     0.81400
C129        C  0.50408733  0.50185479  0.07487134     0.79300
C130        C  0.45977227  0.23306341  0.86974215     0.83500
N131        N  0.46068828  0.26707461  0.89719837    -0.74800
C132        C  0.45974293  0.30102305  0.86959742     0.86000
N133        N  0.45791621  0.30077798  0.81506762    -0.74700
C134        C  0.45696715  0.26696231  0.78788513     0.86100
N135        N  0.45794462  0.23319141  0.81519700    -0.76400
C136        C  0.46418829  0.26797285  0.51960322     0.83500
N137        N  0.46740538  0.23415985  0.49276008    -0.74800
C138        C  0.47380557  0.23435995  0.43947765     0.86000
N139        N  0.47748566  0.26829794  0.41336053    -0.74700
C140        C  0.47429785  0.30208079  0.44009631     0.86100
N141        N  0.46789362  0.30195300  0.49338556    -0.76400
C142        C  0.03830987  0.05541824  0.22251577     0.83500
N143        N  0.02133033  0.07908556  0.25184014    -0.74800
C144        C  0.02886764  0.08928220  0.30253171     0.86000
N145        N  0.05352579  0.07607788  0.32386346    -0.74700
C146        C  0.07059996  0.05237450  0.29488523     0.86100
N147        N  0.06307646  0.04203443  0.24394538    -0.76400
C148        C  0.38390163  0.98073427  0.68149459     0.83500
N149        N  0.35888685  0.99397347  0.66099909    -0.74800
C150        C  0.35077393  0.98338397  0.61051434     0.86000
N151        N  0.36752067  0.95958585  0.58100480    -0.74700
C152        C  0.39243113  0.94648896  0.60139776     0.86100
N153        N  0.40056234  0.95694078  0.65167847    -0.76400
Zn154      Zn  0.42781716  0.04795132  0.93121623     1.49700
Zn155      Zn  0.45391464  0.99240825  0.02205270     1.49400
Zn156      Zn  0.46823092  0.97684932  0.89809751     1.49100
Zn157      Zn  0.49474717  0.05130738  0.95773418     1.49500
O158        O  0.46122578  0.01721764  0.95222700    -1.80800
O159        O  0.39698705  0.04461666  0.98789688    -0.71400
O160        O  0.45644983  0.93439994  0.01648780    -0.71200
O161        O  0.43966864  0.98044216  0.83770367    -0.70800
O162        O  0.41493147  0.00609970  0.05107069    -0.71400
O163        O  0.41153122  0.02956090  0.86002002    -0.71000
O164        O  0.46619537  0.92299361  0.93026440    -0.71600
O165        O  0.02571332  0.03436186  0.90590409    -0.71000
O166        O  0.48274214  0.00947082  0.07717778    -0.71800
O167        O  0.00720312  0.98302269  0.86501722    -0.71200
O168        O  0.01110526  0.05030116  0.03348154    -0.71600
O169        O  0.48453883  0.10679734  0.93963119    -0.71500
O170        O  0.43816125  0.10427044  0.92190797    -0.71300
C171        C  0.39498705  0.02719452  0.03287080     0.80500
C172        C  0.46148423  0.91117884  0.97798178     0.81000
C173        C  0.41876398  0.00266598  0.82793778     0.79900
C174        C  0.02740902  0.00689629  0.87202809     0.80300
C175        C  0.50389095  0.03232044  0.07607847     0.81400
C176        C  0.46130563  0.12306448  0.92621374     0.80500
C177        C  0.45844132  0.76855610  0.38262797     0.83500
N178        N  0.45467294  0.80249955  0.40895194    -0.74800
C179        C  0.44791254  0.80251110  0.46210419     0.86000
N180        N  0.44446088  0.76867047  0.48856949    -0.74700
C181        C  0.44818452  0.73478342  0.46236795     0.86100
N182        N  0.45494449  0.73468587  0.40923803    -0.76400
C183        C  0.46479614  0.80101165  0.03277221     0.83500
N184        N  0.46673974  0.80080202  0.08729647    -0.74800
C185        C  0.46793118  0.76700121  0.11450082     0.86000
N186        N  0.46704243  0.73321609  0.08718688    -0.74700
C187        C  0.46510225  0.73308786  0.03263902     0.86100
N188        N  0.46392519  0.76707121  0.00520575    -0.76400
C189        C  0.46904506  0.76703363  0.17227301    -0.15200
C190        C  0.46878575  0.76739195  0.22081600     0.08900
C191        C  0.46693890  0.76798664  0.27755652     0.10700
C192        C  0.46391674  0.76840537  0.32576157    -0.16000
C193        C  0.46332244  0.83755510  0.00535142    -0.09900
C194        C  0.46228786  0.87048909  0.98953470    -0.11500
C195        C  0.39295397  0.99114556  0.73486314    -0.09900
C196        C  0.40338368  0.99743138  0.77842415    -0.11500
C197        C  0.44164628  0.83792935  0.48940065    -0.15200
C198        C  0.43373567  0.86576051  0.51424390     0.08900
C199        C  0.42169070  0.89601621  0.54456168     0.10700
C200        C  0.40932125  0.91999143  0.57069962    -0.16000
C201        C  0.02975424  0.04520083  0.16876971    -0.09900
C202        C  0.01941089  0.03874195  0.12517770    -0.11500
C203        C  0.01174969  0.11590233  0.33249363    -0.15200
C204        C  0.49928126  0.14018466  0.35785837     0.08900
C205        C  0.48731126  0.17087912  0.38734318     0.10700
C206        C  0.47963574  0.19897222  0.41183246    -0.16000
C207        C  0.46079534  0.19651526  0.89732151    -0.09900
C208        C  0.46129017  0.16362945  0.91350842    -0.11500
C209        C  0.45565623  0.26694949  0.73016918    -0.15200
C210        C  0.45551905  0.26713404  0.68164751     0.08900
C211        C  0.45675098  0.26746624  0.62488494     0.10700
C212        C  0.45924307  0.26774520  0.57659660    -0.16000
C213        C  0.46292680  0.66373155  0.98888565    -0.09900
C214        C  0.46387355  0.69659538  0.00501738    -0.11500
C215        C  0.46074697  0.33763955  0.89697182    -0.09900
C216        C  0.46124826  0.37059782  0.91284132    -0.11500
C217        C  0.39339050  0.54425534  0.73335098    -0.09900
C218        C  0.40368755  0.53769447  0.77697293    -0.11500
C219        C  0.41028960  0.61661706  0.57034225    -0.15200
C220        C  0.42259592  0.64085392  0.54458058     0.08900
C221        C  0.43447131  0.67138326  0.51457559     0.10700
C222        C  0.44218322  0.69936423  0.48985143    -0.16000
C223        C  0.03007836  0.48908703  0.16746131    -0.09900
C224        C  0.01961143  0.49543551  0.12395108    -0.11500
C225        C  0.01327956  0.41992370  0.33298926    -0.15200
C226        C  0.50078830  0.39596215  0.35891762     0.08900
C227        C  0.48859672  0.36555005  0.38867051     0.10700
C228        C  0.48060473  0.33755650  0.41303036    -0.16000
C229        C  0.20342103  0.26854992  0.67269167    -0.15200
C230        C  0.20342252  0.26826027  0.72123314     0.08900
C231        C  0.20504299  0.26786732  0.77799264     0.10700
C232        C  0.20799691  0.26755275  0.82620840    -0.16000
C233        C  0.21016099  0.16563420  0.48942219    -0.09900
C234        C  0.20932144  0.19858040  0.50528918    -0.11500
C235        C  0.11891079  0.03310582  0.34191039    -0.09900
C236        C  0.09707431  0.03994182  0.31814178    -0.11500
C237        C  0.32417126  0.99602867  0.58810759    -0.09900
C238        C  0.30235502  0.00330581  0.56457703    -0.11500
C239        C  0.36946937  0.03205921  0.06413447    -0.09900
C240        C  0.34752664  0.03896694  0.08751826    -0.11500
C241        C  0.27859518  0.04389232  0.23423331    -0.09900
C242        C  0.26825890  0.03795338  0.27799576    -0.11500
C243        C  0.26227330  0.11474683  0.06980423    -0.15200
C244        C  0.25002857  0.13892341  0.04381916     0.08900
C245        C  0.23815408  0.16944881  0.01378968     0.10700
C246        C  0.23037163  0.19747477  0.98923392    -0.16000
C247        C  0.05318567  0.00192170  0.84158656    -0.09900
C248        C  0.07513573  0.99485941  0.81832093    -0.11500
C249        C  0.14313873  0.99006568  0.67017134    -0.09900
C250        C  0.15333040  0.99678884  0.62652026    -0.11500
C251        C  0.21091261  0.87244549  0.41421113    -0.09900
C252        C  0.21152548  0.83957839  0.39805656    -0.11500
C253        C  0.16041010  0.91879893  0.83384862    -0.15200
C254        C  0.17273862  0.89435590  0.85917726     0.08900
C255        C  0.18460473  0.86348777  0.88849155     0.10700
C256        C  0.19229196  0.83533550  0.91285162    -0.16000
C257        C  0.21671616  0.76866247  0.23131840    -0.15200
C258        C  0.21681336  0.76822435  0.18280191     0.08900
C259        C  0.21558134  0.76755519  0.12604787     0.10700
C260        C  0.21310175  0.76702744  0.07776369    -0.16000
C261        C  0.21179589  0.66562051  0.41439842    -0.09900
C262        C  0.21229312  0.69859155  0.39865706    -0.11500
C263        C  0.20973035  0.33962908  0.50616666    -0.09900
C264        C  0.21060647  0.37249815  0.49000267    -0.11500
C265        C  0.30332552  0.53327436  0.56186942    -0.09900
C266        C  0.32520810  0.54022924  0.58540190    -0.11500
C267        C  0.12017180  0.50351575  0.33839047    -0.09900
C268        C  0.09838007  0.49604580  0.31488458    -0.11500
C269        C  0.36983260  0.50190426  0.06279916    -0.09900
C270        C  0.34805309  0.49472402  0.08654353    -0.11500
C271        C  0.28000264  0.48983755  0.23463672    -0.09900
C272        C  0.26963705  0.49668120  0.27810436    -0.11500
C273        C  0.26297334  0.41832259  0.07102409    -0.15200
C274        C  0.25052922  0.39424870  0.04520515     0.08900
C275        C  0.23843352  0.36390058  0.01516303     0.10700
C276        C  0.23051292  0.33605442  0.99037987    -0.16000
C277        C  0.05318942  0.53132578  0.83974309    -0.09900
C278        C  0.07516496  0.53820862  0.81650127    -0.11500
C279        C  0.14357805  0.54423007  0.66912993    -0.09900
C280        C  0.15386748  0.53841600  0.62531687    -0.11500
C281        C  0.16055494  0.61358872  0.83446732    -0.15200
C282        C  0.17282552  0.63777241  0.86036854     0.08900
C283        C  0.18463450  0.66847690  0.89008936     0.10700
C284        C  0.19229306  0.69667273  0.91438067    -0.16000
C285        C  0.63475011  0.55396229  0.72289164     0.83500
N286        N  0.65157003  0.57732217  0.75303737    -0.74800
C287        C  0.64364840  0.58720510  0.80365496     0.86000
N288        N  0.61876628  0.57402161  0.82404919    -0.74700
C289        C  0.60185485  0.55064783  0.79422505     0.86100
N290        N  0.60975721  0.54062800  0.74338298    -0.76400
C291        C  0.78885924  0.47927496  0.18118222     0.83500
N292        N  0.77209707  0.45537703  0.15174445    -0.74800
C293        C  0.77996244  0.44493747  0.10130795     0.86000
N294        N  0.80471060  0.45815545  0.08036047    -0.74700
C295        C  0.82156005  0.48207216  0.10946895     0.86100
N296        N  0.81370691  0.49265693  0.16011585    -0.76400
Zn297      Zn  0.70435775  0.54369031  0.38119156     1.49700
Zn298      Zn  0.67792856  0.48843655  0.47208571     1.49400
Zn299      Zn  0.74478922  0.48436606  0.44552375     1.49100
Zn300      Zn  0.71854796  0.55908492  0.50524445     1.49500
O301        O  0.71147560  0.51882005  0.45103887    -1.80800
O302        O  0.66552950  0.52971447  0.35175008    -0.71400
O303        O  0.68794003  0.43211921  0.48155507    -0.71200
O304        O  0.76114353  0.48515433  0.36974283    -0.70800
O305        O  0.64729447  0.49171565  0.41524081    -0.71400
O306        O  0.73330859  0.52671890  0.32617916    -0.71000
O307        O  0.73427226  0.42897958  0.46368040    -0.71600
O308        O  0.75753784  0.55268451  0.53805487    -0.71000
O309        O  0.66163919  0.50680913  0.54322165    -0.71800
O310        O  0.77578335  0.50102939  0.49746770    -0.71200
O311        O  0.69014110  0.55541435  0.56594721    -0.71600
O312        O  0.71630573  0.61299913  0.47331284    -0.71500
O313        O  0.70655267  0.60171026  0.38705051    -0.71300
C314        C  0.64550715  0.50877183  0.36998163     0.80500
C315        C  0.71093903  0.41303148  0.47721846     0.81000
C316        C  0.75418735  0.50341089  0.32721676     0.79900
C317        C  0.77759704  0.52855425  0.53123562     0.80300
C318        C  0.66910017  0.53340114  0.57558389     0.81400
C319        C  0.71144691  0.62488446  0.42568005     0.80500
C320        C  0.70815919  0.76663022  0.02077465     0.83500
N321        N  0.70468781  0.73256853  0.99465544    -0.74800
C322        C  0.69827135  0.73228634  0.94137033     0.86000
N323        N  0.69484180  0.76599659  0.91453771    -0.74700
C324        C  0.69829273  0.80001627  0.94056959     0.86100
N325        N  0.70471127  0.80036028  0.99383738    -0.76400
C326        C  0.71269525  0.80300193  0.37067867     0.83500
N327        N  0.71440578  0.80271552  0.31611973    -0.74800
C328        C  0.71550870  0.76885879  0.28903870     0.86000
N329        N  0.71480668  0.73513638  0.31647031    -0.74700
C330        C  0.71310921  0.73507960  0.37101513     0.86100
N331        N  0.71202939  0.76909713  0.39837673    -0.76400
C332        C  0.63441028  0.97969088  0.72377375     0.83500
N333        N  0.60952025  0.99293985  0.74481855    -0.74800
C334        C  0.60172671  0.98242797  0.79552978     0.86000
N335        N  0.61866595  0.95865644  0.82469890    -0.74700
C336        C  0.64345884  0.94556690  0.80376225     0.86100
N337        N  0.65126353  0.95595316  0.75327227    -0.76400
C338        C  0.78759731  0.05401043  0.18068296     0.83500
N339        N  0.77093674  0.07773834  0.15076165    -0.74800
C340        C  0.77908115  0.08812789  0.10046224     0.86000
N341        N  0.80402419  0.07506955  0.08016242    -0.74700
C342        C  0.82078631  0.05133786  0.10975008     0.86100
N343        N  0.81265405  0.04080769  0.16027089    -0.76400
Zn344      Zn  0.74421026  0.98809700  0.43143727     1.49700
Zn345      Zn  0.67737117  0.98455833  0.45868376     1.49400
Zn346      Zn  0.71818458  0.04368169  0.52239710     1.49100
Zn347      Zn  0.70374758  0.05898932  0.39841290     1.49500
O348        O  0.71081752  0.01875788  0.45268491    -1.80800
O349        O  0.73391106  0.93184990  0.42224332    -0.71400
O350        O  0.66128071  0.98539740  0.53466367    -0.71200
O351        O  0.75708460  0.02972374  0.55134866    -0.70800
O352        O  0.68761302  0.92913713  0.44058646    -0.71400
O353        O  0.77499316  0.99125635  0.48807189    -0.71000
O354        O  0.68952028  0.02663535  0.57787078    -0.71600
O355        O  0.70588935  0.11297698  0.43039691    -0.71000
O356        O  0.64632034  0.00122159  0.40687489    -0.71800
O357        O  0.71583345  0.10172288  0.51659417    -0.71200
O358        O  0.66475183  0.05245511  0.36555139    -0.71600
O359        O  0.73215583  0.05521637  0.33764307    -0.71500
O360        O  0.76042236  0.00628258  0.36007516    -0.71300
C361        C  0.71083090  0.91297759  0.42687479     0.80500
C362        C  0.66854563  0.00348774  0.57713837     0.81000
C363        C  0.77696679  0.00853371  0.53314435     0.79900
C364        C  0.71077139  0.12488956  0.47802361     0.80300
C365        C  0.64460585  0.02850154  0.37270203     0.81400
C366        C  0.75305738  0.03299428  0.32780853     0.80500
C367        C  0.70826499  0.30300485  0.53344107     0.83500
N368        N  0.70927395  0.26911851  0.50571971    -0.74800
C369        C  0.70804410  0.23505983  0.53298254     0.86000
N370        N  0.70588572  0.23506651  0.58748388    -0.74700
C371        C  0.70484071  0.26876936  0.61495228     0.86100
N372        N  0.70609510  0.30265428  0.58794539    -0.76400
C373        C  0.71356000  0.26726809  0.88303300     0.83500
N374        N  0.71730940  0.30104644  0.90974840    -0.74800
C375        C  0.72425275  0.30075852  0.96279672     0.86000
N376        N  0.72791325  0.26677226  0.98879078    -0.74700
C377        C  0.72420900  0.23303050  0.96220610     0.86100
N378        N  0.71726435  0.23323506  0.90915059    -0.76400
C379        C  0.53902894  0.47928046  0.22111041     0.83500
N380        N  0.56392293  0.49292074  0.24162320    -0.74800
C381        C  0.57184537  0.48308177  0.29251603     0.86000
N382        N  0.55501965  0.45963408  0.32242733    -0.74700
C383        C  0.53021765  0.44617347  0.30200922     0.86100
N384        N  0.52228857  0.45587426  0.25133228    -0.76400
C385        C  0.88454214  0.55500145  0.67994391     0.83500
N386        N  0.85964807  0.54180277  0.65884800    -0.74800
C387        C  0.85174513  0.55268433  0.60834782     0.86000
N388        N  0.86857215  0.57675173  0.57944357    -0.74700
C389        C  0.89335533  0.58981269  0.60041904     0.86100
N390        N  0.90128103  0.57906650  0.65070357    -0.76400
Zn391      Zn  0.99487238  0.48282559  0.95662853     1.49700
Zn392      Zn  0.96856598  0.55749363  0.89693413     1.49400
Zn393      Zn  0.92801833  0.48650355  0.92956645     1.49100
Zn394      Zn  0.95416333  0.54181333  0.02077462     1.49500
O395        O  0.96144749  0.51707307  0.95091600    -1.80800
O396        O  0.52575350  0.49934838  0.90448567    -0.71400
O397        O  0.93991112  0.55434612  0.83660653    -0.71200
O398        O  0.93828790  0.43014826  0.92028848    -0.70800
O399        O  0.50740606  0.55079189  0.86355117    -0.71400
O400        O  0.98454688  0.42735350  0.93898833    -0.71000
O401        O  0.91176094  0.50511873  0.85834603    -0.71600
O402        O  0.91519648  0.52807770  0.04966387    -0.71000
O403        O  0.96688439  0.61133785  0.92936417    -0.71800
O404        O  0.89722764  0.48972641  0.98630591    -0.71200
O405        O  0.95678374  0.59979966  0.01540704    -0.71600
O406        O  0.98292250  0.52467189  0.07597251    -0.71500
O407        O  0.51133128  0.48392562  0.03226114    -0.71300
C408        C  0.52748566  0.52670344  0.87045085     0.80500
C409        C  0.91900920  0.53218641  0.82654265     0.81000
C410        C  0.96133525  0.41120908  0.92519880     0.79900
C411        C  0.89526126  0.50700494  0.03139197     0.80300
C412        C  0.96205142  0.62307585  0.97708364     0.81400
C413        C  0.00408738  0.50185479  0.07487130     0.79300
C414        C  0.95977240  0.23306341  0.86974214     0.83500
N415        N  0.96068838  0.26707461  0.89719836    -0.74800
C416        C  0.95974302  0.30102305  0.86959741     0.86000
N417        N  0.95791631  0.30077798  0.81506761    -0.74700
C418        C  0.95696724  0.26696231  0.78788513     0.86100
N419        N  0.95794473  0.23319141  0.81519700    -0.76400
C420        C  0.96418828  0.26797287  0.51960324     0.83500
N421        N  0.96740543  0.23415984  0.49276008    -0.74800
C422        C  0.97380555  0.23435997  0.43947768     0.86000
N423        N  0.97748561  0.26829796  0.41336052    -0.74700
C424        C  0.97429782  0.30208080  0.44009629     0.86100
N425        N  0.96789356  0.30195299  0.49338556    -0.76400
C426        C  0.53830996  0.05541818  0.22251580     0.83500
N427        N  0.52133028  0.07908561  0.25184009    -0.74800
C428        C  0.52886771  0.08928216  0.30253172     0.86000
N429        N  0.55352571  0.07607790  0.32386344    -0.74700
C430        C  0.57059999  0.05237441  0.29488529     0.86100
N431        N  0.56307639  0.04203445  0.24394536    -0.76400
C432        C  0.88390161  0.98073424  0.68149463     0.83500
N433        N  0.85888681  0.99397345  0.66099913    -0.74800
C434        C  0.85077393  0.98338391  0.61051434     0.86000
N435        N  0.86752064  0.95958586  0.58100480    -0.74700
C436        C  0.89243116  0.94648898  0.60139783     0.86100
N437        N  0.90056231  0.95694077  0.65167845    -0.76400
Zn438      Zn  0.92781720  0.04795133  0.93121624     1.49700
Zn439      Zn  0.95391457  0.99240825  0.02205270     1.49400
Zn440      Zn  0.96823087  0.97684930  0.89809752     1.49100
Zn441      Zn  0.99474710  0.05130737  0.95773419     1.49500
O442        O  0.96122573  0.01721762  0.95222704    -1.80800
O443        O  0.89698702  0.04461665  0.98789684    -0.71400
O444        O  0.95644987  0.93439993  0.01648779    -0.71200
O445        O  0.93966862  0.98044210  0.83770368    -0.70800
O446        O  0.91493141  0.00609968  0.05107067    -0.71400
O447        O  0.91153131  0.02956095  0.86001999    -0.71000
O448        O  0.96619541  0.92299361  0.93026439    -0.71600
O449        O  0.52571341  0.03436184  0.90590411    -0.71000
O450        O  0.98274207  0.00947086  0.07717773    -0.71800
O451        O  0.50720314  0.98302272  0.86501721    -0.71200
O452        O  0.51110522  0.05030121  0.03348154    -0.71600
O453        O  0.98453885  0.10679731  0.93963119    -0.71500
O454        O  0.93816127  0.10427048  0.92190800    -0.71300
C455        C  0.89498696  0.02719454  0.03287082     0.80500
C456        C  0.96148428  0.91117885  0.97798182     0.81000
C457        C  0.91876406  0.00266595  0.82793776     0.79900
C458        C  0.52740907  0.00689632  0.87202815     0.80300
C459        C  0.00389097  0.03232047  0.07607844     0.81400
C460        C  0.96130559  0.12306449  0.92621372     0.80500
C461        C  0.95844125  0.76855610  0.38262797     0.83500
N462        N  0.95467285  0.80249955  0.40895193    -0.74800
C463        C  0.94791244  0.80251107  0.46210415     0.86000
N464        N  0.94446079  0.76867048  0.48856947    -0.74700
C465        C  0.94818441  0.73478343  0.46236794     0.86100
N466        N  0.95494441  0.73468587  0.40923801    -0.76400
C467        C  0.96479608  0.80101165  0.03277222     0.83500
N468        N  0.96673963  0.80080202  0.08729649    -0.74800
C469        C  0.96793117  0.76700121  0.11450083     0.86000
N470        N  0.96704250  0.73321609  0.08718688    -0.74700
C471        C  0.96510233  0.73308786  0.03263901     0.86100
N472        N  0.96392524  0.76707121  0.00520575    -0.76400
C473        C  0.96904513  0.76703363  0.17227302    -0.15200
C474        C  0.96878588  0.76739195  0.22081600     0.08900
C475        C  0.96693903  0.76798664  0.27755655     0.10700
C476        C  0.96391680  0.76840537  0.32576158    -0.16000
C477        C  0.96332240  0.83755510  0.00535143    -0.09900
C478        C  0.96228789  0.87048908  0.98953469    -0.11500
C479        C  0.89295400  0.99114559  0.73486314    -0.09900
C480        C  0.90338373  0.99743142  0.77842407    -0.11500
C481        C  0.94164623  0.83792938  0.48940068    -0.15200
C482        C  0.93373570  0.86576049  0.51424388     0.08900
C483        C  0.92169070  0.89601624  0.54456172     0.10700
C484        C  0.90932127  0.91999144  0.57069961    -0.16000
C485        C  0.52975427  0.04520084  0.16876960    -0.09900
C486        C  0.51941097  0.03874197  0.12517770    -0.11500
C487        C  0.51174972  0.11590239  0.33249362    -0.15200
C488        C  0.99928117  0.14018462  0.35785834     0.08900
C489        C  0.98731121  0.17087913  0.38734319     0.10700
C490        C  0.97963577  0.19897221  0.41183244    -0.16000
C491        C  0.96079545  0.19651526  0.89732150    -0.09900
C492        C  0.96129023  0.16362944  0.91350842    -0.11500
C493        C  0.95565617  0.26694949  0.73016919    -0.15200
C494        C  0.95551894  0.26713404  0.68164751     0.08900
C495        C  0.95675093  0.26746624  0.62488497     0.10700
C496        C  0.95924309  0.26774520  0.57659659    -0.16000
C497        C  0.96292685  0.66373155  0.98888566    -0.09900
C498        C  0.96387358  0.69659538  0.00501738    -0.11500
C499        C  0.96074693  0.33763955  0.89697183    -0.09900
C500        C  0.96124824  0.37059782  0.91284134    -0.11500
C501        C  0.89339054  0.54425532  0.73335097    -0.09900
C502        C  0.90368751  0.53769445  0.77697296    -0.11500
C503        C  0.91028964  0.61661708  0.57034223    -0.15200
C504        C  0.92259586  0.64085389  0.54458060     0.08900
C505        C  0.93447123  0.67138329  0.51457555     0.10700
C506        C  0.94218312  0.69936423  0.48985142    -0.16000
C507        C  0.53007840  0.48908704  0.16746133    -0.09900
C508        C  0.51961137  0.49543553  0.12395106    -0.11500
C509        C  0.51327951  0.41992372  0.33298923    -0.15200
C510        C  0.00078833  0.39596211  0.35891766     0.08900
C511        C  0.98859667  0.36555007  0.38867049     0.10700
C512        C  0.98060466  0.33755651  0.41303035    -0.16000
C513        C  0.70342112  0.26854992  0.67269168    -0.15200
C514        C  0.70342265  0.26826027  0.72123313     0.08900
C515        C  0.70504305  0.26786732  0.77799264     0.10700
C516        C  0.70799689  0.26755275  0.82620844    -0.16000
C517        C  0.71016101  0.16563420  0.48942219    -0.09900
C518        C  0.70932147  0.19858040  0.50528919    -0.11500
C519        C  0.61891074  0.03310579  0.34191048    -0.09900
C520        C  0.59707424  0.03994179  0.31814183    -0.11500
C521        C  0.82417125  0.99602869  0.58810752    -0.09900
C522        C  0.80235506  0.00330581  0.56457695    -0.11500
C523        C  0.86946937  0.03205922  0.06413444    -0.09900
C524        C  0.84752655  0.03896695  0.08751831    -0.11500
C525        C  0.77859513  0.04389233  0.23423339    -0.09900
C526        C  0.76825897  0.03795337  0.27799567    -0.11500
C527        C  0.76227331  0.11474685  0.06980426    -0.15200
C528        C  0.75002856  0.13892344  0.04381913     0.08900
C529        C  0.73815410  0.16944876  0.01378972     0.10700
C530        C  0.73037165  0.19747481  0.98923389    -0.16000
C531        C  0.55318569  0.00192167  0.84158654    -0.09900
C532        C  0.57513571  0.99485939  0.81832088    -0.11500
C533        C  0.64313868  0.99006567  0.67017136    -0.09900
C534        C  0.65333031  0.99678884  0.62652021    -0.11500
C535        C  0.71091257  0.87244548  0.41421111    -0.09900
C536        C  0.71152538  0.83957839  0.39805656    -0.11500
C537        C  0.66041014  0.91879901  0.83384860    -0.15200
C538        C  0.67273869  0.89435590  0.85917726     0.08900
C539        C  0.68460468  0.86348775  0.88849157     0.10700
C540        C  0.69229192  0.83533548  0.91285165    -0.16000
C541        C  0.71671611  0.76866247  0.23131840    -0.15200
C542        C  0.71681343  0.76822435  0.18280190     0.08900
C543        C  0.71558140  0.76755519  0.12604787     0.10700
C544        C  0.71310170  0.76702744  0.07776371    -0.16000
C545        C  0.71179584  0.66562051  0.41439842    -0.09900
C546        C  0.71229306  0.69859155  0.39865706    -0.11500
C547        C  0.70973024  0.33962908  0.50616665    -0.09900
C548        C  0.71060643  0.37249816  0.49000266    -0.11500
C549        C  0.80332549  0.53327435  0.56186942    -0.09900
C550        C  0.82520818  0.54022925  0.58540197    -0.11500
C551        C  0.62017178  0.50351580  0.33839047    -0.09900
C552        C  0.59838003  0.49604582  0.31488464    -0.11500
C553        C  0.86983254  0.50190426  0.06279926    -0.09900
C554        C  0.84805318  0.49472403  0.08654343    -0.11500
C555        C  0.78000268  0.48983753  0.23463664    -0.09900
C556        C  0.76963706  0.49668119  0.27810441    -0.11500
C557        C  0.76297338  0.41832259  0.07102412    -0.15200
C558        C  0.75052931  0.39424863  0.04520510     0.08900
C559        C  0.73843358  0.36390057  0.01516301     0.10700
C560        C  0.73051289  0.33605441  0.99037988    -0.16000
C561        C  0.55318943  0.53132578  0.83974309    -0.09900
C562        C  0.57516489  0.53820861  0.81650131    -0.11500
C563        C  0.64357808  0.54423006  0.66912992    -0.09900
C564        C  0.65386749  0.53841602  0.62531691    -0.11500
C565        C  0.66055489  0.61358878  0.83446736    -0.15200
C566        C  0.67282546  0.63777242  0.86036855     0.08900
C567        C  0.68463457  0.66847690  0.89008935     0.10700
C568        C  0.69229317  0.69667270  0.91438062    -0.16000
loop_ 
_geom_bond_atom_site_label_1 
_geom_bond_atom_site_label_2 
_geom_bond_distance 
_geom_bond_site_symmetry_2 
_ccdc_geom_bond_type 
C1            N2   1.357       .  A
C1            N6   1.361       .  A
C1          C279   1.438       .  S
N2            C3   1.355       .  A
C3            N4   1.354       .  A
C3          C281   1.433       .  S
N4            C5   1.356       .  A
C5            N6   1.361       .  A
C5          C278   1.438       .  S
C7            N8   1.357       .  A
C7           N12   1.361       .  A
C7          C271   1.438       .  S
N8            C9   1.355       .  A
C9           N10   1.354       .  A
C9          C273   1.434       .  S
N10          C11   1.356       .  A
C11          N12   1.361       .  A
C11         C270   1.438       .  S
Zn13         O17   1.966       .  S
Zn13         O18   2.025       .  S
Zn13         O22   2.016       .  S
Zn13         O29   2.021       .  S
Zn14         O17   1.968       .  S
Zn14         O19   2.023       .  S
Zn14         O21   2.020       .  S
Zn14         O25   2.028       .  S
Zn15         O17   1.975       .  S
Zn15         O20   2.033       .  S
Zn15         O23   2.035       .  S
Zn15         O26   2.030       .  S
Zn16         O17   1.968       .  S
Zn16         O24   2.018       .  S
Zn16         O27   2.018       .  S
Zn16         O28   2.034       .  S
O18          C30   1.272       .  A
O19          C31   1.272       .  A
O20          C32   1.274       .  A
O21          C30   1.273       .  A
O22          C32   1.272       .  A
O23          C31   1.274       .  A
O24          C33   1.272       .  A
O25          C34   1.273       .  A
O26          C33   1.274       .  A
O27          C34   1.272       .  A
O28          C35   1.273       .  A
O29          C35   1.273       .  A
C30         C267   1.438       .  S
C31         C264   1.442       .  S
C32         C272   1.438       .  S
C33         C265   1.438       .  S
C34         C280   1.438       .  S
C35         C261   1.441       .  S
C36          N37   1.358   1_554  A
C36          N41   1.358   1_554  A
C36         C260   1.434       .  S
N37          C38   1.357       .  A
C38          N39   1.356       .  A
C38         C284   1.433       .  S
N39          C40   1.355       .  A
C40          N41   1.357       .  A
C40         C256   1.433       .  S
C42          N43   1.357       .  A
C42          N47   1.363       .  A
C42         C252   1.441       .  S
N43          C44   1.354       .  A
C44          N45   1.354       .  A
C44         C257   1.434       .  S
N45          C46   1.357       .  A
C46          N47   1.363       .  A
C46         C262   1.440       .  S
C48          N49   1.361       .  A
C48          N53   1.357       .  A
C48         C249   1.438       .  S
N49          C50   1.361       .  A
C50          N51   1.356       .  A
C50         C248   1.438       .  S
N51          C52   1.355       .  A
C52          N53   1.355       .  A
C52         C253   1.434       .  S
C54          N55   1.358       .  A
C54          N59   1.362       .  A
C54         C241   1.439       .  S
N55          C56   1.355       .  A
C56          N57   1.354       .  A
C56         C243   1.434       .  S
N57          C58   1.356       .  A
C58          N59   1.361       .  A
C58         C240   1.438       .  S
Zn60         O64   1.968   1_565  S
Zn60         O65   2.024       .  S
Zn60         O69   2.021       .  S
Zn60         O76   2.029   1_565  S
Zn61         O64   1.975   1_565  S
Zn61         O66   2.033       .  S
Zn61         O68   2.032       .  S
Zn61         O72   2.030   1_565  S
Zn62         O64   1.966       .  S
Zn62         O67   2.024       .  S
Zn62         O70   2.016       .  S
Zn62         O73   2.022       .  S
Zn63         O64   1.968       .  S
Zn63         O71   2.037       .  S
Zn63         O74   2.019       .  S
Zn63         O75   2.019       .  S
O65          C77   1.272       .  A
O66          C78   1.274   1_565  A
O67          C79   1.272       .  A
O68          C77   1.273       .  A
O69          C79   1.273   1_565  A
O70          C78   1.272       .  A
O71          C80   1.273       .  A
O72          C81   1.274       .  A
O73          C80   1.273       .  A
O74          C81   1.272       .  A
O75          C82   1.273       .  A
O76          C82   1.273       .  A
C77         C251   1.441       .  S
C78         C250   1.438   1_545  S
C79         C238   1.437       .  S
C80         C233   1.442       .  S
C81         C235   1.438       .  S
C82         C242   1.439       .  S
C83          N84   1.363       .  A
C83          N88   1.357       .  A
C83         C263   1.441       .  S
N84          C85   1.363       .  A
C85          N86   1.357       .  A
C85         C234   1.442       .  S
N86          C87   1.355       .  A
C87          N88   1.355       .  A
C87         C229   1.435       .  S
C89          N90   1.358       .  A
C89          N94   1.358       .  A
C89         C232   1.435       .  S
N90          C91   1.357       .  A
C91          N92   1.355       .  A
C91         C276   1.434       .  S
N92          C93   1.355       .  A
C93          N94   1.357       .  A
C93         C246   1.434       .  S
C95          N96   1.361       .  A
C95         N100   1.357       .  A
C95         C223   1.438       .  S
N96          C97   1.361       .  A
C97          N98   1.356       .  A
C97         C268   1.438       .  S
N98          C99   1.354       .  A
C99         N100   1.355       .  A
C99         C225   1.434       .  S
C101        N102   1.361       .  A
C101        N106   1.358       .  A
C101        C217   1.439       .  S
N102        C103   1.361       .  A
C103        N104   1.356       .  A
C103        C266   1.438       .  S
N104        C105   1.354       .  A
C105        N106   1.355       .  A
C105        C219   1.434       .  S
Zn107       O111   1.975       .  S
Zn107       O116   2.033       .  S
Zn107       O396   2.028       .  S
Zn107       O407   2.031   1_556  S
Zn108       O111   1.968       .  S
Zn108       O113   2.017       .  S
Zn108       O119   2.036       .  S
Zn108       O399   2.019       .  S
Zn109       O111   1.969       .  S
Zn109       O114   2.027       .  S
Zn109       O117   2.032       .  S
Zn109       O120   2.023       .  S
Zn110       O111   1.965   1_554  S
Zn110       O118   2.024       .  S
Zn110       O121   2.020       .  S
Zn110       O122   2.015       .  S
O112       Zn391   2.028   1_455  S
O112        C124   1.273       .  A
O113        C125   1.272       .  A
O114        C126   1.273       .  A
O115       Zn392   2.019   1_455  S
O115        C124   1.272       .  A
O116        C126   1.273       .  A
O117        C125   1.273       .  A
O118        C127   1.272       .  A
O119        C128   1.273       .  A
O120        C127   1.273   1_556  A
O121        C128   1.272   1_554  A
O122        C129   1.272       .  A
O123       Zn391   2.031   1_454  S
O123        C413   1.274       .  A
C124        C277   1.438       .  S
C125        C218   1.439       .  S
C126        C216   1.442       .  S
C127        C269   1.438       .  S
C128        C213   1.441       .  S
C129        C508   1.438       .  S
C129        O407   1.274       .  A
C130        N131   1.363       .  A
C130        N135   1.357       .  A
C130        C207   1.442       .  S
N131        C132   1.363       .  A
C132        N133   1.357       .  A
C132        C215   1.442       .  S
N133        C134   1.354       .  A
C134        N135   1.354       .  A
C134        C209   1.434       .  S
C136        N137   1.358       .  A
C136        N141   1.358       .  A
C136        C212   1.434       .  S
N137        C138   1.357       .  A
C138        N139   1.355       .  A
C138        C206   1.433       .  S
N139        C140   1.355       .  A
C140        N141   1.357       .  A
C140        C228   1.433       .  S
C142        N143   1.357       .  A
C142        N147   1.362       .  A
C142        C201   1.438       .  S
N143        C144   1.355       .  A
C144        N145   1.354       .  A
C144        C203   1.433       .  S
N145        C146   1.356       .  A
C146        N147   1.361       .  A
C146        C236   1.438       .  S
C148        N149   1.361       .  A
C148        N153   1.358       .  A
C148        C195   1.438       .  S
N149        C150   1.361       .  A
C150        N151   1.356       .  A
C150        C237   1.437       .  S
N151        C152   1.354       .  A
C152        N153   1.355       .  A
C152        C200   1.434       .  S
Zn154       O158   1.969       .  S
Zn154       O159   2.023       .  S
Zn154       O163   2.029       .  S
Zn154       O170   2.027       .  S
Zn155       O158   1.966   1_564  S
Zn155       O160   2.021       .  S
Zn155       O162   2.026   1_565  S
Zn155       O166   2.015   1_565  S
Zn156       O158   1.969   1_565  S
Zn156       O161   2.017       .  S
Zn156       O164   2.034       .  S
Zn156       O451   2.019       .  S
Zn157       O158   1.975       .  S
Zn157       O169   2.034       .  S
Zn157       O449   2.030       .  S
Zn157       O452   2.032   1_556  S
O159        C171   1.273   1_556  A
O160        C172   1.272   1_554  A
O161        C173   1.272   1_565  A
O162        C171   1.272       .  A
O163        C173   1.273       .  A
O164        C172   1.273       .  A
O165       Zn441   2.030   1_455  S
O165        C174   1.273       .  A
O166        C175   1.272       .  A
O167       Zn440   2.019   1_455  S
O167        C174   1.272   1_565  A
O168       Zn441   2.032   1_454  S
O168        C459   1.274       .  A
O169        C176   1.274       .  A
O170        C176   1.273       .  A
C171        C239   1.439       .  S
C172        C194   1.441       .  S
C173        C196   1.438   1_545  S
C174        C247   1.439       .  S
C175        C486   1.438       .  S
C175        O452   1.274       .  A
C176        C208   1.442       .  S
C177        N178   1.358       .  A
C177        N182   1.358       .  A
C177        C192   1.435       .  S
N178        C179   1.357       .  A
C179        N180   1.355       .  A
C179        C197   1.434       .  S
N180        C181   1.355       .  A
C181        N182   1.357       .  A
C181        C222   1.434       .  S
C183        N184   1.357       .  A
C183        N188   1.363       .  A
C183        C193   1.441       .  S
N184        C185   1.354       .  A
C185        N186   1.355       .  A
C185        C189   1.435       .  S
N186        C187   1.357       .  A
C187        N188   1.363       .  A
C187        C214   1.441       .  S
C189        C190   1.205       .  T
C190        C191   1.412       .  S
C191        C192   1.205       .  T
C193        C194   1.209   1_554  T
C195        C196   1.207       .  T
C197        C198   1.205       .  T
C198        C199   1.410       .  S
C199        C200   1.205       .  T
C201        C202   1.207       .  T
C202        C459   1.438       .  S
C203        C488   1.204   1_455  T
C204        C487   1.204       .  T
C204        C205   1.409       .  S
C205        C206   1.204       .  T
C207        C208   1.210       .  T
C209        C210   1.205       .  T
C210        C211   1.411       .  S
C211        C212   1.205       .  T
C213        C214   1.209   1_556  T
C215        C216   1.210       .  T
C217        C218   1.208       .  T
C219        C220   1.205       .  T
C220        C221   1.410       .  S
C221        C222   1.204       .  T
C223        C224   1.207       .  T
C224        C413   1.438       .  S
C225        C510   1.204       .  T
C226        C509   1.204       .  T
C226        C227   1.410       .  S
C227        C228   1.204       .  T
C229        C230   1.205       .  T
C230        C231   1.411       .  S
C231        C232   1.205       .  T
C233        C234   1.210       .  T
C235        C236   1.208       .  T
C237        C238   1.207   1_565  T
C239        C240   1.208       .  T
C241        C242   1.208       .  T
C243        C244   1.205       .  T
C244        C245   1.410       .  S
C245        C246   1.205   1_554  T
C247        C248   1.208   1_545  T
C249        C250   1.208       .  T
C251        C252   1.209       .  T
C253        C254   1.204       .  T
C254        C255   1.410       .  S
C255        C256   1.204       .  T
C257        C258   1.205       .  T
C258        C259   1.410       .  S
C259        C260   1.205       .  T
C261        C262   1.209       .  T
C263        C264   1.210       .  T
C265        C266   1.207       .  T
C267        C268   1.207       .  T
C269        C270   1.207       .  T
C271        C272   1.208       .  T
C273        C274   1.204       .  T
C274        C275   1.410       .  S
C275        C276   1.204   1_554  T
C277        C278   1.207       .  T
C279        C280   1.207       .  T
C281        C282   1.204       .  T
C282        C283   1.410       .  S
C283        C284   1.204       .  T
C285        N286   1.357       .  A
C285        N290   1.361       .  A
C285        C563   1.438       .  S
N286        C287   1.355       .  A
C287        N288   1.354       .  A
C287        C565   1.433       .  S
N288        C289   1.356       .  A
C289        N290   1.361       .  A
C289        C562   1.438       .  S
C291        N292   1.357       .  A
C291        N296   1.361       .  A
C291        C555   1.438       .  S
N292        C293   1.355       .  A
C293        N294   1.354       .  A
C293        C557   1.434       .  S
N294        C295   1.356       .  A
C295        N296   1.361       .  A
C295        C554   1.438       .  S
Zn297       O301   1.966       .  S
Zn297       O302   2.025       .  S
Zn297       O306   2.016       .  S
Zn297       O313   2.021       .  S
Zn298       O301   1.968       .  S
Zn298       O303   2.023       .  S
Zn298       O305   2.020       .  S
Zn298       O309   2.028       .  S
Zn299       O301   1.975       .  S
Zn299       O304   2.033       .  S
Zn299       O307   2.035       .  S
Zn299       O310   2.030       .  S
Zn300       O301   1.968       .  S
Zn300       O308   2.018       .  S
Zn300       O311   2.018       .  S
Zn300       O312   2.034       .  S
O302        C314   1.272       .  A
O303        C315   1.272       .  A
O304        C316   1.274       .  A
O305        C314   1.273       .  A
O306        C316   1.272       .  A
O307        C315   1.274       .  A
O308        C317   1.272       .  A
O309        C318   1.273       .  A
O310        C317   1.274       .  A
O311        C318   1.272       .  A
O312        C319   1.273       .  A
O313        C319   1.273       .  A
C314        C551   1.438       .  S
C315        C548   1.442       .  S
C316        C556   1.438       .  S
C317        C549   1.438       .  S
C318        C564   1.438       .  S
C319        C545   1.441       .  S
C320        N321   1.358   1_554  A
C320        N325   1.358   1_554  A
C320        C544   1.434       .  S
N321        C322   1.357       .  A
C322        N323   1.356       .  A
C322        C568   1.433       .  S
N323        C324   1.355       .  A
C324        N325   1.357       .  A
C324        C540   1.433       .  S
C326        N327   1.357       .  A
C326        N331   1.363       .  A
C326        C536   1.441       .  S
N327        C328   1.354       .  A
C328        N329   1.354       .  A
C328        C541   1.434       .  S
N329        C330   1.357       .  A
C330        N331   1.363       .  A
C330        C546   1.440       .  S
C332        N333   1.361       .  A
C332        N337   1.357       .  A
C332        C533   1.438       .  S
N333        C334   1.361       .  A
C334        N335   1.356       .  A
C334        C532   1.438       .  S
N335        C336   1.355       .  A
C336        N337   1.355       .  A
C336        C537   1.434       .  S
C338        N339   1.358       .  A
C338        N343   1.362       .  A
C338        C525   1.439       .  S
N339        C340   1.355       .  A
C340        N341   1.354       .  A
C340        C527   1.434       .  S
N341        C342   1.356       .  A
C342        N343   1.361       .  A
C342        C524   1.438       .  S
Zn344       O348   1.968   1_565  S
Zn344       O349   2.024       .  S
Zn344       O353   2.021       .  S
Zn344       O360   2.029   1_565  S
Zn345       O348   1.975   1_565  S
Zn345       O350   2.033       .  S
Zn345       O352   2.032       .  S
Zn345       O356   2.030   1_565  S
Zn346       O348   1.966       .  S
Zn346       O351   2.024       .  S
Zn346       O354   2.016       .  S
Zn346       O357   2.022       .  S
Zn347       O348   1.968       .  S
Zn347       O355   2.037       .  S
Zn347       O358   2.019       .  S
Zn347       O359   2.019       .  S
O349        C361   1.272       .  A
O350        C362   1.274   1_565  A
O351        C363   1.272       .  A
O352        C361   1.273       .  A
O353        C363   1.273   1_565  A
O354        C362   1.272       .  A
O355        C364   1.273       .  A
O356        C365   1.274       .  A
O357        C364   1.273       .  A
O358        C365   1.272       .  A
O359        C366   1.273       .  A
O360        C366   1.273       .  A
C361        C535   1.441       .  S
C362        C534   1.438   1_545  S
C363        C522   1.437       .  S
C364        C517   1.442       .  S
C365        C519   1.438       .  S
C366        C526   1.439       .  S
C367        N368   1.363       .  A
C367        N372   1.357       .  A
C367        C547   1.441       .  S
N368        C369   1.363       .  A
C369        N370   1.357       .  A
C369        C518   1.442       .  S
N370        C371   1.355       .  A
C371        N372   1.355       .  A
C371        C513   1.435       .  S
C373        N374   1.358       .  A
C373        N378   1.358       .  A
C373        C516   1.435       .  S
N374        C375   1.357       .  A
C375        N376   1.355       .  A
C375        C560   1.434       .  S
N376        C377   1.355       .  A
C377        N378   1.357       .  A
C377        C530   1.434       .  S
C379        N380   1.361       .  A
C379        N384   1.357       .  A
C379        C507   1.438       .  S
N380        C381   1.361       .  A
C381        N382   1.356       .  A
C381        C552   1.438       .  S
N382        C383   1.354       .  A
C383        N384   1.355       .  A
C383        C509   1.434       .  S
C385        N386   1.361       .  A
C385        N390   1.358       .  A
C385        C501   1.439       .  S
N386        C387   1.361       .  A
C387        N388   1.356       .  A
C387        C550   1.438       .  S
N388        C389   1.354       .  A
C389        N390   1.355       .  A
C389        C503   1.434       .  S
Zn391       O395   1.975       .  S
Zn391       O400   2.033       .  S
Zn392       O395   1.968       .  S
Zn392       O397   2.017       .  S
Zn392       O403   2.036       .  S
Zn393       O395   1.969       .  S
Zn393       O398   2.027       .  S
Zn393       O401   2.032       .  S
Zn393       O404   2.023       .  S
Zn394       O395   1.965   1_554  S
Zn394       O402   2.024       .  S
Zn394       O405   2.020       .  S
Zn394       O406   2.015       .  S
O396        C408   1.273       .  A
O397        C409   1.272       .  A
O398        C410   1.273       .  A
O399        C408   1.272       .  A
O400        C410   1.273       .  A
O401        C409   1.273       .  A
O402        C411   1.272       .  A
O403        C412   1.273       .  A
O404        C411   1.273   1_556  A
O405        C412   1.272   1_554  A
O406        C413   1.272   1_655  A
C408        C561   1.438       .  S
C409        C502   1.439       .  S
C410        C500   1.442       .  S
C411        C553   1.438       .  S
C412        C497   1.441       .  S
C414        N415   1.363       .  A
C414        N419   1.357       .  A
C414        C491   1.442       .  S
N415        C416   1.363       .  A
C416        N417   1.357       .  A
C416        C499   1.442       .  S
N417        C418   1.354       .  A
C418        N419   1.354       .  A
C418        C493   1.434       .  S
C420        N421   1.358       .  A
C420        N425   1.358       .  A
C420        C496   1.434       .  S
N421        C422   1.357       .  A
C422        N423   1.355       .  A
C422        C490   1.433       .  S
N423        C424   1.355       .  A
C424        N425   1.357       .  A
C424        C512   1.433       .  S
C426        N427   1.357       .  A
C426        N431   1.362       .  A
C426        C485   1.438       .  S
N427        C428   1.355       .  A
C428        N429   1.354       .  A
C428        C487   1.433       .  S
N429        C430   1.356       .  A
C430        N431   1.361       .  A
C430        C520   1.438       .  S
C432        N433   1.361       .  A
C432        N437   1.358       .  A
C432        C479   1.438       .  S
N433        C434   1.361       .  A
C434        N435   1.356       .  A
C434        C521   1.437       .  S
N435        C436   1.354       .  A
C436        N437   1.355       .  A
C436        C484   1.434       .  S
Zn438       O442   1.969       .  S
Zn438       O443   2.023       .  S
Zn438       O447   2.029       .  S
Zn438       O454   2.027       .  S
Zn439       O442   1.966   1_564  S
Zn439       O444   2.021       .  S
Zn439       O446   2.026   1_565  S
Zn439       O450   2.015   1_565  S
Zn440       O442   1.969   1_565  S
Zn440       O445   2.017       .  S
Zn440       O448   2.034       .  S
Zn441       O442   1.975       .  S
Zn441       O453   2.034       .  S
O443        C455   1.273   1_556  A
O444        C456   1.272   1_554  A
O445        C457   1.272   1_565  A
O446        C455   1.272       .  A
O447        C457   1.273       .  A
O448        C456   1.273       .  A
O449        C458   1.273       .  A
O450        C459   1.272   1_655  A
O451        C458   1.272   1_565  A
O453        C460   1.274       .  A
O454        C460   1.273       .  A
C455        C523   1.439       .  S
C456        C478   1.441       .  S
C457        C480   1.438   1_545  S
C458        C531   1.439       .  S
C460        C492   1.442       .  S
C461        N462   1.358       .  A
C461        N466   1.358       .  A
C461        C476   1.435       .  S
N462        C463   1.357       .  A
C463        N464   1.355       .  A
C463        C481   1.434       .  S
N464        C465   1.355       .  A
C465        N466   1.357       .  A
C465        C506   1.434       .  S
C467        N468   1.357       .  A
C467        N472   1.363       .  A
C467        C477   1.441       .  S
N468        C469   1.354       .  A
C469        N470   1.355       .  A
C469        C473   1.435       .  S
N470        C471   1.357       .  A
C471        N472   1.363       .  A
C471        C498   1.441       .  S
C473        C474   1.205       .  T
C474        C475   1.412       .  S
C475        C476   1.205       .  T
C477        C478   1.209   1_554  T
C479        C480   1.207       .  T
C481        C482   1.205       .  T
C482        C483   1.410       .  S
C483        C484   1.205       .  T
C485        C486   1.207       .  T
C488        C489   1.409       .  S
C489        C490   1.204       .  T
C491        C492   1.210       .  T
C493        C494   1.205       .  T
C494        C495   1.411       .  S
C495        C496   1.205       .  T
C497        C498   1.209   1_556  T
C499        C500   1.210       .  T
C501        C502   1.208       .  T
C503        C504   1.205       .  T
C504        C505   1.410       .  S
C505        C506   1.204       .  T
C507        C508   1.207       .  T
C510        C511   1.410   1_455  S
C511        C512   1.204       .  T
C513        C514   1.205       .  T
C514        C515   1.411       .  S
C515        C516   1.205       .  T
C517        C518   1.210       .  T
C519        C520   1.208       .  T
C521        C522   1.207   1_565  T
C523        C524   1.208       .  T
C525        C526   1.208       .  T
C527        C528   1.205       .  T
C528        C529   1.410       .  S
C529        C530   1.205   1_554  T
C531        C532   1.208   1_545  T
C533        C534   1.208       .  T
C535        C536   1.209       .  T
C537        C538   1.204       .  T
C538        C539   1.410       .  S
C539        C540   1.204       .  T
C541        C542   1.205       .  T
C542        C543   1.410       .  S
C543        C544   1.205       .  T
C545        C546   1.209       .  T
C547        C548   1.210       .  T
C549        C550   1.207       .  T
C551        C552   1.207       .  T
C553        C554   1.207       .  T
C555        C556   1.208       .  T
C557        C558   1.204       .  T
C558        C559   1.410       .  S
C559        C560   1.204   1_554  T
C561        C562   1.207       .  T
C563        C564   1.207       .  T
C565        C566   1.204       .  T
C566        C567   1.410       .  S
C567        C568   1.204       .  T
