geometry optimzed in LAMMPS
_audit_creation_date              2020-11-30 
_audit_creation_method            'lammps2cif' 
_symmetry_space_group_name_H-M    'P1' 
_symmetry_Int_Tables_number       1 
_symmetry_cell_setting            triclinic 
loop_ 
_symmetry_equiv_pos_as_xyz 
  x,y,z 
_cell_length_a                    46.746888612407375 
_cell_length_b                    34.721278639001554 
_cell_length_c                    38.84828011479396 
_cell_angle_alpha                 90.01151364012061 
_cell_angle_beta                  89.93199519800918 
_cell_angle_gamma                 89.88278359401308 
loop_ 
_atom_site_label 
_atom_site_type_symbol 
_atom_site_fract_x 
_atom_site_fract_y 
_atom_site_fract_z 
_atom_site_charge 
N1          N  0.34593782  0.27325657  0.81826636    -0.27500
N2          N  0.32405466  0.28934082  0.80218996    -0.35360
C3          C  0.30615960  0.30461555  0.82565764     0.00840
C4          C  0.31769692  0.29841531  0.85788484     0.06870
C5          C  0.34272685  0.27813826  0.85232678    -0.06230
H6          H  0.28731432  0.32137982  0.81958769     0.07540
H7          H  0.35819349  0.26929205  0.87147403     0.08740
Cu8        Cu  0.32245716  0.29710065  0.74946201     0.44170
Cu9        Cu  0.38160379  0.25149673  0.79369763     0.41990
Cu10       Cu  0.38889216  0.27930356  0.70475821     0.43880
N11         N  0.32954823  0.31195268  0.69859918    -0.34880
N12         N  0.35421034  0.30650493  0.68266310    -0.29140
C13         C  0.35170543  0.31789976  0.64977998    -0.05240
C14         C  0.32423814  0.33148688  0.64484865     0.06980
C15         C  0.31061859  0.32673184  0.67615439     0.00770
H16         H  0.36792158  0.31369211  0.63023533     0.08430
H17         H  0.28818185  0.33132805  0.68159752     0.07500
N18         N  0.42085639  0.25271889  0.73256158    -0.36330
N19         N  0.41816749  0.24236115  0.76513111    -0.28510
C20         C  0.44366292  0.23038490  0.77691601    -0.03750
C21         C  0.46330256  0.23367583  0.75048883     0.04860
C22         C  0.44809077  0.24741892  0.72264103     0.02950
H23         H  0.44787197  0.22203731  0.80327521     0.08060
H24         H  0.45661671  0.25567420  0.69780176     0.06890
N25         N  0.70260824  0.27186817  0.81946964    -0.27500
N26         N  0.72729830  0.27735038  0.80356498    -0.35360
C27         C  0.74627699  0.29156736  0.82628976     0.00840
C28         C  0.73257925  0.29542047  0.85765542     0.06870
C29         C  0.70501544  0.28280871  0.85245044    -0.06230
H30         H  0.76803316  0.29959091  0.82019054     0.07540
H31         H  0.68787688  0.28193039  0.87117410     0.08740
Cu32       Cu  0.73268954  0.26987944  0.75092919     0.44170
Cu33       Cu  0.66603757  0.25184538  0.79617113     0.41990
Cu34       Cu  0.66646237  0.25008228  0.70475060     0.43880
N35         N  0.72874926  0.27189063  0.69773327    -0.34880
N36         N  0.70438030  0.26552763  0.68143324    -0.29140
C37         C  0.70752959  0.27460784  0.64810401    -0.05240
C38         C  0.73521474  0.28695982  0.64303266     0.06980
C39         C  0.74817323  0.28500057  0.67495147     0.00770
H40         H  0.69045025  0.27431692  0.62933252     0.08430
H41         H  0.76933651  0.29504259  0.68158968     0.07500
N42         N  0.63058158  0.23775717  0.73351976    -0.36330
N43         N  0.63069617  0.23754536  0.76746947    -0.28510
C44         C  0.60407514  0.23106423  0.77893410    -0.03750
C45         C  0.58622591  0.22696931  0.75077608     0.04860
C46         C  0.60378683  0.23174808  0.72235870     0.02950
H47         H  0.59795143  0.23126587  0.80581594     0.08060
H48         H  0.59738690  0.23341810  0.69564763     0.06890
N49         N  0.19666471  0.42702067  0.31927284    -0.27500
N50         N  0.22006461  0.41596952  0.30285844    -0.35360
C51         C  0.23726668  0.39728950  0.32503606     0.00840
C52         C  0.22369157  0.39597636  0.35665163     0.06870
C53         C  0.19826949  0.41567121  0.35218948    -0.06230
H54         H  0.25772818  0.38472644  0.31841038     0.07540
H55         H  0.18202961  0.42135194  0.37139780     0.08740
Cu56       Cu  0.22602221  0.42284872  0.25048730     0.44170
Cu57       Cu  0.16205946  0.45344997  0.29646655     0.41990
Cu58       Cu  0.16385504  0.45874357  0.20472346     0.43880
N59         N  0.22209645  0.42227722  0.19750159    -0.34880
N60         N  0.19899291  0.43439307  0.18111730    -0.29140
C61         C  0.20145681  0.42581526  0.14757533    -0.05240
C62         C  0.22734914  0.40752047  0.14267169     0.06980
C63         C  0.24012344  0.40608830  0.17466202     0.00770
H64         H  0.18536729  0.43185464  0.12830833     0.08430
H65         H  0.26037134  0.39283537  0.18109932     0.07500
N66         N  0.12826002  0.47261102  0.23344474    -0.36330
N67         N  0.12744134  0.47018404  0.26734055    -0.28510
C68         C  0.10037731  0.47524423  0.27805149    -0.03750
C69         C  0.08332317  0.48062090  0.24940405     0.04860
C70         C  0.10179535  0.47949745  0.22159742     0.02950
H71         H  0.09335621  0.47254553  0.30450620     0.08060
H72         H  0.09633184  0.48170952  0.19461484     0.06890
N73         N  0.84582501  0.43185162  0.32062623    -0.27500
N74         N  0.82313574  0.41888033  0.30400551    -0.35360
C75         C  0.80504305  0.40288123  0.32690338     0.00840
C76         C  0.81727495  0.40542831  0.35927206     0.06870
C77         C  0.84285100  0.42450921  0.35430939    -0.06230
H78         H  0.78490890  0.38948908  0.32036370     0.07540
H79         H  0.85833097  0.43241538  0.37372747     0.08740
Cu80       Cu  0.81905702  0.42114127  0.25079657     0.44170
Cu81       Cu  0.88122780  0.45629495  0.29773307     0.41990
Cu82       Cu  0.88072660  0.46081712  0.20618115     0.43880
N83         N  0.82351248  0.42194910  0.19759067    -0.34880
N84         N  0.84617521  0.43618983  0.18169516    -0.29140
C85         C  0.84395277  0.42937712  0.14780693    -0.05240
C86         C  0.81877087  0.40970879  0.14202949     0.06980
C87         C  0.80609601  0.40590952  0.17403649     0.00770
H88         H  0.85983471  0.43745937  0.12887163     0.08430
H89         H  0.78633773  0.39117313  0.17993079     0.07500
N90         N  0.91570050  0.47597573  0.23539709    -0.36330
N91         N  0.91606919  0.47392948  0.26931353    -0.28510
C92         C  0.94286293  0.48004206  0.28048864    -0.03750
C93         C  0.96016641  0.48650294  0.25214904     0.04860
C94         C  0.94219515  0.48354342  0.22400574     0.02950
H95         H  0.94960497  0.47669982  0.30696442     0.08060
H96         H  0.94829077  0.48418281  0.19711856     0.06890
C97         C  0.39942524  0.21298706  0.09348167     0.02920
C98         C  0.37950670  0.24237880  0.08666844    -0.13230
C99         C  0.35998432  0.23850767  0.05941092     0.00420
C100        C  0.36031684  0.20480065  0.03947909    -0.11750
C101        C  0.38004836  0.17524174  0.04588816     0.02910
C102        C  0.39982620  0.17974314  0.07279733    -0.11170
H103        H  0.37912123  0.26797422  0.10262378     0.08510
H104        H  0.34519110  0.20171410  0.01852110     0.06040
H105        H  0.41573916  0.15764655  0.07748366     0.05880
C106        C  0.28150108  0.34215578  0.99404352     0.00360
C107        C  0.26192466  0.36842105  0.00538545     0.00360
C108        C  0.14384122  0.50032029  0.90933707     0.02920
C109        C  0.16354339  0.47069911  0.91608886    -0.13230
C110        C  0.18276339  0.47401651  0.94359228     0.00420
C111        C  0.18209052  0.50691719  0.96442597    -0.11750
C112        C  0.16298628  0.53733490  0.95778686     0.02910
C113        C  0.14417113  0.53397142  0.92962854    -0.11170
H114        H  0.16360818  0.44491337  0.90035922     0.08510
H115        H  0.19643397  0.50848715  0.98628981     0.06040
H116        H  0.12991791  0.55747849  0.92318520     0.05880
C117        C  0.76284853  0.34323468  0.99387788     0.00360
C118        C  0.78315916  0.36822302  0.00523355     0.00360
C119        C  0.64421137  0.21054458  0.08759500     0.02920
C120        C  0.66397926  0.24039726  0.08135715    -0.13230
C121        C  0.68437582  0.23709266  0.05492635     0.00420
C122        C  0.68493665  0.20398933  0.03439608    -0.11750
C123        C  0.66549094  0.17400301  0.03978580     0.02910
C124        C  0.64552918  0.17707637  0.06689632    -0.11170
H125        H  0.66339467  0.26636646  0.09681367     0.08510
H126        H  0.70027198  0.20198089  0.01349337     0.06040
H127        H  0.63133273  0.15318054  0.07210426     0.05880
C128        C  0.89689258  0.50202594  0.90584601     0.02920
C129        C  0.87639080  0.47356188  0.91323167    -0.13230
C130        C  0.85878484  0.47696516  0.94241550     0.00420
C131        C  0.86287935  0.50814922  0.96484523    -0.11750
C132        C  0.88192686  0.53798578  0.95685180     0.02910
C133        C  0.89852912  0.53496691  0.92682232    -0.11170
H134        H  0.87411619  0.44900396  0.89624595     0.08510
H135        H  0.85074427  0.50948355  0.98860988     0.06040
H136        H  0.91295998  0.55802187  0.91982953     0.05880
O137        O  0.49448604  0.25319790  0.21245511    -0.73150
O138        O  0.55422591  0.25215357  0.28732380    -0.74130
O139        O  0.55542503  0.25216650  0.21380718    -0.62750
O140        O  0.49327374  0.25289183  0.28644465    -0.71160
O141        O  0.49278665  0.18906606  0.28605165    -0.70720
O142        O  0.55397091  0.18823841  0.21338363    -0.61970
O143        O  0.55323947  0.18819485  0.28735482    -0.74480
O144        O  0.49335267  0.18931690  0.21317527    -0.73260
Cu145      Cu  0.52438171  0.25488068  0.25001510     1.04560
Cu146      Cu  0.52341349  0.18653767  0.24997818     1.04330
C147        C  0.48456653  0.22139054  0.20097473     0.93050
C148        C  0.56274040  0.21992046  0.29944843     0.92190
C149        C  0.56406308  0.21987828  0.20181706     0.84330
C150        C  0.48342177  0.22100425  0.29793196     0.90600
C151        C  0.39834824  0.20971008  0.40624539     0.02920
C152        C  0.37940638  0.23989507  0.41450041    -0.13230
C153        C  0.36078237  0.23632080  0.44263888     0.00420
C154        C  0.36181194  0.20336088  0.46319242    -0.11750
C155        C  0.38059121  0.17303252  0.45566088     0.02910
C156        C  0.39852328  0.17613795  0.42666513    -0.11170
H157        H  0.37900542  0.26583156  0.39899340     0.08510
H158        H  0.34796630  0.20163704  0.48556463     0.06040
H159        H  0.41274685  0.15263792  0.42003252     0.05880
C160        C  0.14671226  0.50104675  0.59401481     0.02920
C161        C  0.16396970  0.47141809  0.58049276    -0.13230
C162        C  0.18463762  0.47937254  0.55479904     0.00420
C163        C  0.18728322  0.51785908  0.54369249    -0.11750
C164        C  0.16768664  0.54642896  0.55354598     0.02910
C165        C  0.14774924  0.53785368  0.57926362    -0.11170
H166        H  0.16113652  0.44265155  0.59048136     0.08510
H167        H  0.20419493  0.52569535  0.52636261     0.06040
H168        H  0.13303499  0.55994274  0.58803544     0.05880
C169        C  0.27932199  0.33702918  0.50734193     0.00360
C170        C  0.25902726  0.36100533  0.49351096    -0.00480
C171        C  0.75957251  0.34599122  0.50914493     0.00360
C172        C  0.77722459  0.37384812  0.49657651     0.00360
C173        C  0.64516005  0.21142236  0.41052021     0.02920
C174        C  0.66405707  0.24141165  0.41924405    -0.13230
C175        C  0.68401100  0.23657859  0.44589762     0.00420
C176        C  0.68447814  0.20217546  0.46464145    -0.11750
C177        C  0.66440530  0.17319542  0.45820245     0.02910
C178        C  0.64535356  0.17754097  0.43050898    -0.11170
H179        H  0.66310719  0.26862457  0.40567185     0.08510
H180        H  0.69994748  0.19854896  0.48516183     0.06040
H181        H  0.63039590  0.15463886  0.42479686     0.05880
C182        C  0.89876676  0.50093931  0.59252334     0.02920
C183        C  0.87844163  0.47215225  0.58507105    -0.13230
C184        C  0.85960788  0.47619707  0.55703691     0.00420
C185        C  0.86164054  0.50934652  0.53631950    -0.11750
C186        C  0.88175004  0.53810962  0.54310967     0.02910
C187        C  0.89991925  0.53395856  0.57151660    -0.11170
H188        H  0.87728603  0.44674643  0.60105505     0.08510
H189        H  0.84726165  0.51304660  0.51471967     0.06040
H190        H  0.91525308  0.55646017  0.57707724     0.05880
O191        O  0.05450518  0.52009007  0.71436031    -0.73150
O192        O  0.99173501  0.52421561  0.78460889    -0.74130
O193        O  0.05247155  0.52176962  0.78725161    -0.62750
O194        O  0.99411460  0.52278546  0.71152782    -0.71160
O195        O  0.99137806  0.45895644  0.71358144    -0.70720
O196        O  0.05186417  0.45779640  0.78759952    -0.61970
O197        O  0.99086443  0.46047265  0.78673434    -0.74480
O198        O  0.05226314  0.45626711  0.71376912    -0.73260
Cu199      Cu  0.02325823  0.52438731  0.74943707     1.04560
Cu200      Cu  0.02157950  0.45608618  0.75048453     1.04330
C201        C  0.06296635  0.48769196  0.70248653     0.93050
C202        C  0.98122498  0.49311281  0.79674758     0.92190
C203        C  0.06145520  0.48971211  0.79920517     0.84330
C204        C  0.98354788  0.49114126  0.70069426     0.90600
N205        N  0.34606925  0.93672730  0.18137002    -0.27500
N206        N  0.32231797  0.92801702  0.19810734    -0.35360
C207        C  0.30366117  0.91199833  0.17605492     0.00840
C208        C  0.31664510  0.91011781  0.14420813     0.06870
C209        C  0.34337417  0.92614463  0.14831203    -0.06230
H210        H  0.28245049  0.90216742  0.18278644     0.07540
H211        H  0.35954247  0.93016933  0.12869565     0.08740
Cu212      Cu  0.31753889  0.93532449  0.25048379     0.44170
Cu213      Cu  0.38114152  0.96197522  0.20405255     0.41990
Cu214      Cu  0.38113538  0.96635029  0.29649328     0.43880
N215        N  0.32112522  0.93556796  0.30339954    -0.34880
N216        N  0.34427146  0.94690278  0.32009329    -0.29140
C217        C  0.34063809  0.94033725  0.35386256    -0.05240
C218        C  0.31401075  0.92410790  0.35846649     0.06980
C219        C  0.30221970  0.92117398  0.32607907     0.00770
H220        H  0.35672063  0.94524332  0.37337470     0.08430
H221        H  0.28200889  0.90813194  0.31932152     0.07500
N222        N  0.41579527  0.98170768  0.26654010    -0.36330
N223        N  0.41536025  0.98112737  0.23257027    -0.28510
C224        C  0.44155705  0.98932750  0.22061552    -0.03750
C225        C  0.45953412  0.99519654  0.24839256     0.04860
C226        C  0.44243630  0.98990451  0.27715093     0.02950
H227        H  0.44749157  0.98841775  0.19368353     0.08060
H228        H  0.44924355  0.98884059  0.30374228     0.06890
N229        N  0.69984441  0.94341631  0.18229689    -0.27500
N230        N  0.72272525  0.93191335  0.19945050    -0.35360
C231        C  0.74097426  0.91465835  0.17751311     0.00840
C232        C  0.72873497  0.91519914  0.14523656     0.06870
C233        C  0.70276196  0.93359830  0.14905980    -0.06230
H234        H  0.76076982  0.90079330  0.18488085     0.07540
H235        H  0.68662701  0.93794333  0.12948778     0.08740
Cu236      Cu  0.72545976  0.93314968  0.25247647     0.44170
Cu237      Cu  0.66388718  0.96644425  0.20521177     0.41990
Cu238      Cu  0.65812443  0.94987277  0.29642707     0.43880
N239        N  0.71899858  0.92298596  0.30427797    -0.34880
N240        N  0.69406344  0.92740448  0.31988659    -0.29140
C241        C  0.69644779  0.91571332  0.35270759    -0.05240
C242        C  0.72420046  0.90331415  0.35789962     0.06980
C243        C  0.73803676  0.90877042  0.32686127     0.00770
H244        H  0.67945191  0.91710766  0.37159643     0.08430
H245        H  0.76020399  0.90261475  0.32104937     0.07500
N246        N  0.62528313  0.97167672  0.26678493    -0.36330
N247        N  0.62758002  0.97828782  0.23340844    -0.28510
C248        C  0.60193618  0.98872345  0.22099242    -0.03750
C249        C  0.58251009  0.98813607  0.24781615     0.04860
C250        C  0.59808944  0.97775792  0.27655906     0.02950
H251        H  0.59755977  0.99444671  0.19412395     0.08060
H252        H  0.58989235  0.97253160  0.30220658     0.06890
N253        N  0.19639712  0.79063127  0.68042323    -0.27500
N254        N  0.22035297  0.79915420  0.69681303    -0.35360
C255        C  0.23949670  0.81267977  0.67389488     0.00840
C256        C  0.22665403  0.81328652  0.64184769     0.06870
C257        C  0.19951576  0.79876535  0.64688515    -0.06230
H258        H  0.26078013  0.82248416  0.68025879     0.07540
H259        H  0.18311532  0.79461870  0.62761675     0.08740
Cu260      Cu  0.22482444  0.79594922  0.74991932     0.44170
Cu261      Cu  0.15959209  0.77043897  0.70345007     0.41990
Cu262      Cu  0.16020190  0.76900234  0.79517157     0.43880
N263        N  0.22017335  0.79901002  0.80301014    -0.34880
N264        N  0.19612196  0.79013105  0.81907065    -0.29140
C265        C  0.19867928  0.79849745  0.85263275    -0.05240
C266        C  0.22565887  0.81322480  0.85799744     0.06980
C267        C  0.23892714  0.81284647  0.82618231     0.00770
H268        H  0.18204157  0.79440306  0.87166343     0.08430
H269        H  0.26020285  0.82297694  0.82015259     0.07500
N270        N  0.12485496  0.75487292  0.76646972    -0.36330
N271        N  0.12437820  0.75566642  0.73250157    -0.28510
C272        C  0.09751079  0.74931955  0.72167087    -0.03750
C273        C  0.08032102  0.74487082  0.75035344     0.04860
C274        C  0.09840763  0.74797616  0.77828411     0.02950
H275        H  0.09072509  0.75016990  0.69504740     0.08060
H276        H  0.09264237  0.74691351  0.80525785     0.06890
N277        N  0.84544091  0.79089228  0.82089713    -0.27500
N278        N  0.82179821  0.80165623  0.80490437    -0.35360
C279        C  0.80358484  0.81673500  0.82819507     0.00840
C280        C  0.81679191  0.81602861  0.86007504     0.06870
C281        C  0.84314856  0.79919502  0.85449289    -0.06230
H282        H  0.78233749  0.82722654  0.82241007     0.07540
H283        H  0.85915538  0.79228016  0.87362639     0.08740
Cu284      Cu  0.81607583  0.79572653  0.75212684     0.44170
Cu285      Cu  0.87969116  0.76434583  0.79749061     0.41990
Cu286      Cu  0.87688847  0.75258565  0.70688279     0.43880
N287        N  0.81888353  0.79029541  0.69894653    -0.34880
N288        N  0.84099838  0.77445167  0.68303542    -0.29140
C289        C  0.83801786  0.77912704  0.64899074    -0.05240
C290        C  0.81278551  0.79868848  0.64294542     0.06980
C291        C  0.80114250  0.80541178  0.67518701     0.00770
H292        H  0.85391098  0.77083527  0.63010044     0.08430
H293        H  0.78234308  0.82237611  0.68107215     0.07500
N294        N  0.91282572  0.73986484  0.73534677    -0.36330
N295        N  0.91353056  0.74368291  0.76911665    -0.28510
C296        C  0.94043214  0.73863746  0.78010164    -0.03750
C297        C  0.95765022  0.73147914  0.75182552     0.04860
C298        C  0.93939460  0.73256134  0.72380240     0.02950
H299        H  0.94732180  0.74310718  0.80639398     0.08060
H300        H  0.94532384  0.73192961  0.69687001     0.06890
C301        C  0.39752946  0.00421763  0.59529929     0.02920
C302        C  0.39538028  0.03849939  0.57610303    -0.13230
C303        C  0.37651701  0.04137049  0.54803590     0.00420
C304        C  0.35876205  0.01001470  0.54048171    -0.11750
C305        C  0.35901923  0.97686989  0.56099645     0.02910
C306        C  0.37879024  0.97365886  0.58796894    -0.11170
H307        H  0.40897109  0.06267435  0.58252258     0.08510
H308        H  0.34524066  0.01070895  0.51785223     0.06040
H309        H  0.38005176  0.94711744  0.60256816     0.05880
C310        C  0.26598215  0.84459659  0.50465813     0.00360
C311        C  0.28800071  0.86672083  0.49301999     0.00360
C312        C  0.14433169  0.71542233  0.41382599     0.02920
C313        C  0.14296969  0.68377154  0.43653206    -0.13230
C314        C  0.16013887  0.68250265  0.46629455     0.00420
C315        C  0.17889715  0.71316499  0.47237333    -0.11750
C316        C  0.18315045  0.74232603  0.44795237     0.02910
C317        C  0.16514174  0.74409286  0.41906864    -0.11170
H318        H  0.12877679  0.66013276  0.43057498     0.08510
H319        H  0.19141619  0.71355879  0.49584150     0.06040
H320        H  0.16731604  0.76745981  0.40077311     0.05880
C321        C  0.15211195  0.70798461  0.09722441     0.02920
C322        C  0.15223085  0.67455109  0.07678285    -0.13230
C323        C  0.17055143  0.67123138  0.04815657     0.00420
C324        C  0.18896932  0.70197741  0.04046176    -0.11750
C325        C  0.18982770  0.73506026  0.06128626     0.02910
C326        C  0.17085971  0.73829975  0.08922117    -0.11170
H327        H  0.13760638  0.65136774  0.08289635     0.08510
H328        H  0.20219961  0.70076287  0.01756547     0.06040
H329        H  0.17075567  0.76423113  0.10475368     0.05880
C330        C  0.39716270  0.00383842  0.90831722     0.02920
C331        C  0.37666274  0.97512920  0.91468324    -0.13230
C332        C  0.35642760  0.97991583  0.94109450     0.00420
C333        C  0.35680009  0.01353422  0.96112603    -0.11750
C334        C  0.37722926  0.04234267  0.95523658     0.02910
C335        C  0.39744941  0.03712727  0.92886970    -0.11170
H336        H  0.37646091  0.94916438  0.89920157     0.08510
H337        H  0.34147965  0.01685347  0.98189974     0.06040
H338        H  0.41382072  0.05866354  0.92467741     0.05880
C339        C  0.26109542  0.84785720  0.99587559     0.00360
C340        C  0.28215609  0.87166071  0.00727963     0.00360
C341        C  0.77615046  0.83515390  0.99903570     0.00360
C342        C  0.75527655  0.85911766  0.01092662     0.00360
C343        C  0.65037414  0.00077004  0.90421042     0.02920
C344        C  0.65403347  0.03607221  0.92158137    -0.13230
C345        C  0.67143859  0.03889774  0.95106676     0.00420
C346        C  0.68674480  0.00618248  0.96157241    -0.11750
C347        C  0.68528355  0.97172204  0.94291411     0.02910
C348        C  0.66614107  0.96850330  0.91530002    -0.11170
H349        H  0.64242762  0.06119204  0.91270828     0.08510
H350        H  0.69922425  0.00680822  0.98501866     0.06040
H351        H  0.66324019  0.94078033  0.90305800     0.05880
C352        C  0.90021714  0.71034012  0.09335549     0.02920
C353        C  0.90054520  0.67756148  0.07202249    -0.13230
C354        C  0.88160883  0.67416803  0.04417540     0.00420
C355        C  0.86286186  0.70466992  0.03715226    -0.11750
C356        C  0.86088685  0.73668691  0.05907865     0.02910
C357        C  0.87968422  0.73945430  0.08729645    -0.11170
H358        H  0.91556128  0.65450362  0.07726726     0.08510
H359        H  0.84925813  0.70329063  0.01461478     0.06040
H360        H  0.87808837  0.76375181  0.10468572     0.05880
O361        O  0.05479053  0.74830297  0.21443367    -0.73150
O362        O  0.99348818  0.74721524  0.28768634    -0.74130
O363        O  0.05427377  0.74996247  0.28820410    -0.62750
O364        O  0.99383649  0.74573068  0.21424532    -0.71160
O365        O  0.99566338  0.68204986  0.21496538    -0.70720
O366        O  0.05561289  0.68602935  0.28936381    -0.61970
O367        O  0.99475932  0.68339977  0.28808054    -0.74480
O368        O  0.05664319  0.68453313  0.21612544    -0.73260
Cu369      Cu  0.02407355  0.75004090  0.25107164     1.04560
Cu370      Cu  0.02575158  0.68182335  0.25214205     1.04330
C371        C  0.06534140  0.71649906  0.20363871     0.93050
C372        C  0.98429986  0.71504464  0.29926666     0.92190
C373        C  0.06419415  0.71859216  0.30062723     0.84330
C374        C  0.98497851  0.71321609  0.20305281     0.90600
C375        C  0.90066523  0.71176971  0.40930841     0.02920
C376        C  0.90199685  0.68011146  0.43163957    -0.13230
C377        C  0.88266099  0.67650469  0.45908902     0.00420
C378        C  0.86196107  0.70529311  0.46403438    -0.11750
C379        C  0.86045474  0.73776515  0.44231803     0.02910
C380        C  0.87953443  0.74013620  0.41428962    -0.11170
H381        H  0.91822340  0.65823339  0.42760474     0.08510
H382        H  0.84685869  0.70228320  0.48499920     0.06040
H383        H  0.87786054  0.76361697  0.39608177     0.05880
C384        C  0.64504376  0.99947406  0.59245455     0.02920
C385        C  0.64398593  0.03197292  0.57091694    -0.13230
C386        C  0.66338392  0.03609689  0.54351756     0.00420
C387        C  0.68425228  0.00766606  0.53837514    -0.11750
C388        C  0.68484912  0.97436591  0.55875507     0.02910
C389        C  0.66517739  0.97027665  0.58584610    -0.11170
H390        H  0.62795345  0.05397664  0.57547684     0.08510
H391        H  0.69994929  0.01115441  0.51805883     0.06040
H392        H  0.66579777  0.94481380  0.60195958     0.05880
C393        C  0.78596585  0.84842757  0.50528046     0.00360
C394        C  0.76566698  0.87375324  0.49437365     0.00360
O395        O  0.49154011  0.02700896  0.78676554    -0.73150
O396        O  0.55341438  0.02451392  0.71509394    -0.74130
O397        O  0.49294637  0.02602813  0.71363320    -0.62750
O398        O  0.55215106  0.02565454  0.78836652    -0.71160
O399        O  0.55304789  0.96172991  0.78752005    -0.70720
O400        O  0.49045181  0.96220307  0.71605351    -0.61970
O401        O  0.55135431  0.96074737  0.71400228    -0.74480
O402        O  0.49184362  0.96326835  0.78937561    -0.73260
Cu403      Cu  0.52255789  0.02797335  0.75097823     1.04560
Cu404      Cu  0.52167511  0.95970217  0.75180392     1.04330
C405        C  0.48182337  0.99569701  0.79942572     0.93050
C406        C  0.56170455  0.99232120  0.70256888     0.92190
C407        C  0.48222900  0.99428277  0.70328497     0.84330
C408        C  0.56206794  0.99373722  0.79958338     0.90600
C409        C  0.60384717  0.96744119  0.62133480    -0.09360
C410        C  0.62484988  0.99622411  0.62167912     0.06830
C411        C  0.62546829  0.02265833  0.64916017    -0.03130
C412        C  0.60494475  0.02051542  0.67530442    -0.07580
C413        C  0.58357039  0.99212829  0.67486632     0.05950
C414        C  0.58316721  0.96532061  0.64744894    -0.02610
Br415      Br  0.55360065  0.92744912  0.64240060    -0.02300
H416        H  0.60299567  0.94728334  0.60005602     0.09860
H417        H  0.60577135  0.04116039  0.69620266     0.07880
Br418      Br  0.65440782  0.06159381  0.65262575    -0.02730
C419        C  0.73511790  0.95304456  0.55133656    -0.09360
C420        C  0.70591581  0.94402458  0.55030573     0.06830
C421        C  0.69732265  0.90867245  0.53605486    -0.03130
C422        C  0.71763307  0.88458531  0.52066446    -0.07580
C423        C  0.74660329  0.89525700  0.51867762     0.05950
C424        C  0.75546728  0.92891072  0.53600260    -0.02610
Br425      Br  0.79448056  0.94496026  0.53845948    -0.02300
H426        H  0.74195381  0.98001086  0.56267388     0.09860
H427        H  0.71040687  0.85819123  0.50883338     0.07880
Br428      Br  0.65784526  0.89399551  0.53327743    -0.02730
C429        C  0.81141438  0.75728172  0.46118851    -0.09360
C430        C  0.83883722  0.76846894  0.44996368     0.06830
C431        C  0.84564102  0.80822368  0.45060261    -0.03130
C432        C  0.82620895  0.83467565  0.46457912    -0.07580
C433        C  0.80104883  0.82231763  0.48063255     0.05950
C434        C  0.79289666  0.78354454  0.47704182    -0.02610
Br435      Br  0.75722553  0.76455166  0.49442562    -0.02300
H436        H  0.80497390  0.72739498  0.45955660     0.09860
H437        H  0.83215197  0.86466893  0.46577615     0.07880
Br438      Br  0.88231234  0.82865609  0.43834135    -0.02730
C439        C  0.92042314  0.68610862  0.35450270    -0.09360
C440        C  0.92121708  0.71425791  0.38035695     0.06830
C441        C  0.94267169  0.74264694  0.37922962    -0.03130
C442        C  0.96245655  0.74300771  0.35212539    -0.07580
C443        C  0.96191738  0.71460150  0.32636011     0.05950
C444        C  0.94053297  0.68591419  0.32776722    -0.02610
Br445      Br  0.93688373  0.64638469  0.29356992    -0.02300
H446        H  0.90414966  0.66395722  0.35529115     0.09860
H447        H  0.97903248  0.76475649  0.35192529     0.07880
Br448      Br  0.94759396  0.77921115  0.41568078    -0.02730
C449        C  0.92340796  0.68107814  0.14496106    -0.09360
C450        C  0.92085086  0.71264133  0.12253515     0.06830
C451        C  0.93950606  0.74414287  0.12697976    -0.03130
C452        C  0.95964654  0.74389925  0.15367124    -0.07580
C453        C  0.96252563  0.71210526  0.17584323     0.05950
C454        C  0.94406871  0.68027132  0.17105631    -0.02610
Br455      Br  0.94526668  0.63475704  0.19908127    -0.02300
H456        H  0.90938234  0.65652363  0.14188063     0.09860
H457        H  0.97388445  0.76829244  0.15627642     0.07880
Br458      Br  0.94073731  0.78656097  0.09550371    -0.02730
C459        C  0.60104069  0.01425833  0.88297042    -0.09360
C460        C  0.62803040  0.99747314  0.87689406     0.06830
C461        C  0.63274574  0.97851873  0.84510088    -0.03130
C462        C  0.61068054  0.97644147  0.82068907    -0.07580
C463        C  0.58412905  0.99408532  0.82672210     0.05950
C464        C  0.57941715  0.01315608  0.85816891    -0.02610
Br465      Br  0.54343554  0.03704907  0.86899663    -0.02300
H466        H  0.59664648  0.02838181  0.90729239     0.09860
H467        H  0.61464195  0.96225907  0.79628068     0.07880
Br468      Br  0.66932477  0.95803555  0.83190318    -0.02730
C469        C  0.82233988  0.82809799  0.03121106    -0.09360
C470        C  0.79525735  0.81325369  0.02297085     0.06830
C471        C  0.78867573  0.77537440  0.03317046    -0.03130
C472        C  0.80983746  0.75205521  0.04780984    -0.07580
C473        C  0.83795374  0.76547560  0.05218439     0.05950
C474        C  0.84379290  0.80446942  0.04498477    -0.02610
Br475      Br  0.88129584  0.82597006  0.04882895    -0.02300
H476        H  0.82752763  0.85758074  0.02500110     0.09860
H477        H  0.80473796  0.72242136  0.05395765     0.07880
Br478      Br  0.75176892  0.75299198  0.02615755    -0.02730
C479        C  0.74969215  0.91217591  0.96780776    -0.09360
C480        C  0.73697834  0.88281657  0.98741668     0.06830
C481        C  0.70676397  0.87995407  0.98764163    -0.03130
C482        C  0.69013073  0.90787267  0.97104071    -0.07580
C483        C  0.70302142  0.93882336  0.95406575     0.05950
C484        C  0.73301877  0.94009378  0.95138936    -0.02610
Br485      Br  0.75215533  0.98017496  0.92645879    -0.02300
H486        H  0.77270791  0.91463500  0.96656717     0.09860
H487        H  0.66703169  0.90635460  0.97267262     0.07880
Br488      Br  0.68656230  0.83877078  0.00963868    -0.02730
C489        C  0.45870043  0.96873385  0.85210572    -0.09360
C490        C  0.45914203  0.99703970  0.82620017     0.06830
C491        C  0.43819561  0.02647588  0.82691563    -0.03130
C492        C  0.41813111  0.02777251  0.85364676    -0.07580
C493        C  0.41808900  0.99996070  0.87981705     0.05950
C494        C  0.43851586  0.97007551  0.87882280    -0.02610
Br495      Br  0.44099876  0.93203969  0.91454850    -0.02300
H496        H  0.47463237  0.94604781  0.85214957     0.09860
H497        H  0.40231003  0.05061574  0.85395711     0.07880
Br498      Br  0.43466561  0.06466972  0.79137357    -0.02730
C499        C  0.34819042  0.91488883  0.96504708    -0.09360
C500        C  0.33670184  0.94845386  0.95066504     0.06830
C501        C  0.30680374  0.95328302  0.94993276    -0.03130
C502        C  0.28907733  0.92599457  0.96568473    -0.07580
C503        C  0.30071976  0.89424880  0.98324497     0.05950
C504        C  0.33059267  0.88798678  0.98139007    -0.02610
Br505      Br  0.34916018  0.84392998  0.00094402    -0.02300
H506        H  0.37115566  0.91066936  0.96531658     0.09860
H507        H  0.26625357  0.93098162  0.96603522     0.07880
Br508      Br  0.28937607  0.99746694  0.92897371    -0.02730
C509        C  0.10948520  0.73960834  0.12360001    -0.09360
C510        C  0.13121283  0.71175781  0.12580481     0.06830
C511        C  0.13157683  0.68651899  0.15418146    -0.03130
C512        C  0.11008932  0.68879385  0.17924195    -0.07580
C513        C  0.08803765  0.71623811  0.17688509     0.05950
C514        C  0.08792648  0.74193947  0.14867115    -0.02610
Br515      Br  0.05763465  0.77840312  0.14118676    -0.02300
H516        H  0.10876025  0.75881639  0.10162779     0.09860
H517        H  0.11071815  0.66906770  0.20084379     0.07880
Br518      Br  0.16146040  0.64922263  0.16039167    -0.02730
C519        C  0.25576859  0.78861037  0.03145908    -0.09360
C520        C  0.24389415  0.82335774  0.01980616     0.06830
C521        C  0.21496846  0.83138811  0.02769001    -0.03130
C522        C  0.19785801  0.80306979  0.04306894    -0.07580
C523        C  0.20930942  0.76701665  0.05176725     0.05950
C524        C  0.23893655  0.76095067  0.04788502    -0.02610
Br525      Br  0.25761918  0.71585216  0.06528202    -0.02300
H526        H  0.27807468  0.78228893  0.02692373     0.09860
H527        H  0.17530218  0.80870603  0.04703768     0.07880
Br528      Br  0.19755757  0.88028327  0.01879707    -0.02730
C529        C  0.13392139  0.71554392  0.35059338    -0.09360
C530        C  0.12393709  0.71822230  0.38465608     0.06830
C531        C  0.09435654  0.72305363  0.39054727    -0.03130
C532        C  0.07526818  0.72369850  0.36279443    -0.07580
C533        C  0.08516472  0.71981971  0.32891338     0.05950
C534        C  0.11473453  0.71623049  0.32279906    -0.02610
Br535      Br  0.12959262  0.71229241  0.27688297    -0.02300
H536        H  0.15659676  0.71228081  0.34566331     0.09860
H537        H  0.05257731  0.72700116  0.36768680     0.07880
Br538      Br  0.07909163  0.73047744  0.43593562    -0.02730
C539        C  0.20145651  0.81000242  0.45386748    -0.09360
C540        C  0.20676069  0.77013252  0.45379256     0.06830
C541        C  0.23396538  0.75677319  0.46409127    -0.03130
C542        C  0.25319390  0.78195923  0.47940622    -0.07580
C543        C  0.24743938  0.82141167  0.48153755     0.05950
C544        C  0.22186699  0.83577713  0.46704073    -0.02610
Br545      Br  0.21308401  0.88970721  0.46639054    -0.02300
H546        H  0.18094667  0.82093086  0.44534950     0.09860
H547        H  0.27271947  0.77042288  0.49020493     0.07880
Br548      Br  0.24626662  0.70438586  0.45790980    -0.02730
C549        C  0.41174270  0.98742290  0.65556088    -0.09360
C550        C  0.41968613  0.00018870  0.62253068     0.06830
C551        C  0.44874683  0.00896092  0.61611506    -0.03130
C552        C  0.46871567  0.00695205  0.64284670    -0.07580
C553        C  0.46058651  0.99492793  0.67582683     0.05950
C554        C  0.43198687  0.98450136  0.68204648    -0.02610
Br555      Br  0.41951589  0.96788812  0.72670654    -0.02300
H556        H  0.38964365  0.98031770  0.66093913     0.09860
H557        H  0.49084879  0.01417998  0.63772839     0.07880
Br558      Br  0.46300199  0.02110594  0.57098714    -0.02730
C559        C  0.35312929  0.91290474  0.53434079    -0.09360
C560        C  0.34059274  0.94431948  0.55107405     0.06830
C561        C  0.31058180  0.94697883  0.55292572    -0.03130
C562        C  0.29361893  0.91967027  0.53613689    -0.07580
C563        C  0.30616963  0.88952943  0.51720212     0.05950
C564        C  0.33628380  0.88583114  0.51723351    -0.02610
Br565      Br  0.35615190  0.84595769  0.49302290    -0.02300
H566        H  0.37621242  0.91079814  0.53269688     0.09860
H567        H  0.27063480  0.92345404  0.53599686     0.07880
Br568      Br  0.29196054  0.98841546  0.57672477    -0.02730
C569        C  0.77024138  0.82475671  0.56310459    -0.09360
C570        C  0.79164604  0.84160079  0.54257807     0.06830
C571        C  0.81906877  0.84733389  0.55695904    -0.03130
C572        C  0.82499611  0.83408472  0.59002862    -0.07580
C573        C  0.80410943  0.81542193  0.60969789     0.05950
C574        C  0.77626970  0.81163725  0.59641736    -0.02610
Br575      Br  0.74662946  0.78541100  0.62115811    -0.02300
H576        H  0.74910071  0.82008412  0.55262321     0.09860
H577        H  0.84628307  0.83811108  0.60040498     0.07880
Br578      Br  0.84952946  0.87394086  0.53405691    -0.02730
C579        C  0.77786813  0.81062538  0.90315359    -0.09360
C580        C  0.80446952  0.82594555  0.89381436     0.06830
C581        C  0.81991865  0.84773593  0.91795754    -0.03130
C582        C  0.80950939  0.85175289  0.95140505    -0.07580
C583        C  0.78398674  0.83386221  0.96178263     0.05950
C584        C  0.76756128  0.81429947  0.93683993    -0.02610
Br585      Br  0.73157193  0.79082677  0.94687778    -0.02300
H586        H  0.76565695  0.79418142  0.88459387     0.09860
H587        H  0.82160021  0.86901517  0.96931548     0.07880
Br588      Br  0.85497939  0.87347111  0.90652166    -0.02730
C589        C  0.23438682  0.86500615  0.94264868    -0.09360
C590        C  0.25555754  0.84252382  0.95849827     0.06830
C591        C  0.26903143  0.81310189  0.93932505    -0.03130
C592        C  0.26010044  0.80537410  0.90569046    -0.07580
C593        C  0.23743898  0.82601013  0.89105442     0.05950
C594        C  0.22489336  0.85654903  0.90946490    -0.02610
Br595      Br  0.19460361  0.88730302  0.89054002    -0.02300
H596        H  0.22468579  0.88876227  0.95627740     0.09860
H597        H  0.26994992  0.78195731  0.89151716     0.07880
Br598      Br  0.29899674  0.78169548  0.95774943    -0.02730
C599        C  0.26482240  0.80974012  0.59752590    -0.09360
C600        C  0.23899388  0.82597404  0.60889441     0.06830
C601        C  0.22419918  0.85177522  0.58734348    -0.03130
C602        C  0.23439131  0.85901735  0.55425086    -0.07580
C603        C  0.25921569  0.84094899  0.54192251     0.05950
C604        C  0.27489473  0.81676708  0.56415145    -0.02610
Br605      Br  0.30885590  0.79046403  0.54964305    -0.02300
H606        H  0.27639404  0.78994444  0.61399104     0.09860
H607        H  0.22245354  0.87831442  0.53784260     0.07880
Br608      Br  0.19021426  0.87840941  0.60183225    -0.02730
C609        C  0.03572686  0.71463476  0.72932632    -0.09360
C610        C  0.04900036  0.74157738  0.75092388     0.06830
C611        C  0.03208515  0.76517812  0.77235320    -0.03130
C612        C  0.00249321  0.76083398  0.77245096    -0.07580
C613        C  0.98911834  0.73362029  0.75120003     0.05950
C614        C  0.00598670  0.71035012  0.72939348    -0.02610
Br615      Br  0.98995187  0.67085596  0.70078423    -0.02300
H616        H  0.04859943  0.69638388  0.71278322     0.09860
H617        H  0.98980345  0.77973754  0.78859289     0.07880
Br618      Br  0.04756643  0.80617009  0.79982000    -0.02730
C619        C  0.73619804  0.85476471  0.44374526    -0.09360
C620        C  0.75846850  0.87726311  0.45719494     0.06830
C621        C  0.77140568  0.90521899  0.43598559    -0.03130
C622        C  0.76082889  0.91182673  0.40291328    -0.07580
C623        C  0.73705986  0.89155571  0.39073783     0.05950
C624        C  0.72513048  0.86210701  0.41101238    -0.02610
Br625      Br  0.69395149  0.83098059  0.39512905    -0.02300
H626        H  0.72673286  0.83215747  0.45910048     0.09860
H627        H  0.77035351  0.93422439  0.38724793     0.07880
Br628      Br  0.80283838  0.93627125  0.45067802    -0.02730
C629        C  0.75949220  0.91610446  0.09373463    -0.09360
C630        C  0.73937831  0.89670154  0.11387214     0.06830
C631        C  0.72800945  0.86154905  0.10233736    -0.03130
C632        C  0.73560147  0.84746787  0.06988736    -0.07580
C633        C  0.75341591  0.86891891  0.04811079     0.05950
C634        C  0.76656968  0.90252925  0.06098424    -0.02610
Br635      Br  0.79389695  0.93155530  0.03494685    -0.02300
H636        H  0.76873252  0.94280241  0.10287478     0.09860
H637        H  0.72637691  0.82074852  0.06108616     0.07880
Br638      Br  0.70101257  0.83294124  0.12930984    -0.02730
C639        C  0.30248449  0.85215676  0.06415863    -0.09360
C640        C  0.28653442  0.87862459  0.04468102     0.06830
C641        C  0.27764358  0.91341592  0.06021442    -0.03130
C642        C  0.28638950  0.92221444  0.09362513    -0.07580
C643        C  0.30414631  0.89702494  0.11179611     0.05950
C644        C  0.31172700  0.86139719  0.09730883    -0.02610
Br645      Br  0.33567891  0.82541237  0.12127577    -0.02300
H646        H  0.30909624  0.82505370  0.05304327     0.09860
H647        H  0.28031906  0.94957306  0.10493200     0.07880
Br648      Br  0.25407184  0.95052979  0.03724809    -0.02730
C649        C  0.28469110  0.91685993  0.44819168    -0.09360
C650        C  0.29036054  0.87805852  0.45614534     0.06830
C651        C  0.30105282  0.85358236  0.42997207    -0.03130
C652        C  0.30710165  0.86879795  0.39743576    -0.07580
C653        C  0.30295513  0.90797488  0.39058688     0.05950
C654        C  0.29106923  0.93192054  0.41585812    -0.02610
Br655      Br  0.28436953  0.98567076  0.40771610    -0.02300
H656        H  0.27621248  0.93601555  0.46772129     0.09860
H657        H  0.31644547  0.85038725  0.37787460     0.07880
Br658      Br  0.31055979  0.80046308  0.43691226    -0.02730
C659        C  0.50522801  0.97457953  0.22206636    -0.09360
C660        C  0.49107571  0.99653868  0.24723549     0.06830
C661        C  0.50738861  0.01734260  0.27143181    -0.03130
C662        C  0.53722599  0.01468481  0.27076108    -0.07580
C663        C  0.55123435  0.99211290  0.24596935     0.05950
C664        C  0.53496513  0.97206628  0.22127939    -0.02610
Br665      Br  0.55150412  0.93754431  0.18806433    -0.02300
H666        H  0.49310195  0.95782751  0.20366607     0.09860
H667        H  0.54959828  0.03041543  0.28966694     0.07880
Br668      Br  0.49049740  0.05122807  0.30484629    -0.02730
C669        C  0.88203219  0.60963002  0.53714020    -0.09360
C670        C  0.88294920  0.57327557  0.52130537     0.06830
C671        C  0.88476980  0.57131083  0.48505294    -0.03130
C672        C  0.88453221  0.60515460  0.46554204    -0.07580
C673        C  0.88319335  0.64155355  0.48130076     0.05950
C674        C  0.88244001  0.64354559  0.51765046    -0.02610
Br675      Br  0.88388594  0.69136009  0.54248870    -0.02300
H676        H  0.88098701  0.61169295  0.56495486     0.09860
H677        H  0.88542734  0.60296410  0.43772820     0.07880
Br678      Br  0.88951685  0.52358332  0.46063406    -0.02730
C679        C  0.94886573  0.50572247  0.61388037    -0.09360
C680        C  0.92012657  0.49632658  0.62076199     0.06830
C681        C  0.91269269  0.48440778  0.65447435    -0.03130
C682        C  0.93387256  0.48155179  0.67990418    -0.07580
C683        C  0.96223361  0.49193386  0.67288713     0.05950
C684        C  0.96963007  0.50441487  0.63966902    -0.02610
Br685      Br  0.00785369  0.51993029  0.62823023    -0.02300
H686        H  0.95524531  0.51462492  0.58826807     0.09860
H687        H  0.92795215  0.47272626  0.70570923     0.07880
Br688      Br  0.87393125  0.47547871  0.66872555    -0.02730
C689        C  0.66354569  0.10181402  0.46492290    -0.09360
C690        C  0.66340099  0.13835854  0.48036703     0.06830
C691        C  0.66197578  0.14089974  0.51665937    -0.03130
C692        C  0.66191516  0.10735162  0.53657074    -0.07580
C693        C  0.66264892  0.07080107  0.52115876     0.05950
C694        C  0.66290205  0.06824747  0.48483200    -0.02610
Br695      Br  0.66052048  0.02005111  0.46069829    -0.02300
H696        H  0.66414807  0.09933088  0.43711771     0.09860
H697        H  0.66133241  0.10986651  0.56437774     0.07880
Br698      Br  0.65817183  0.18904613  0.54067567    -0.02730
C699        C  0.73305449  0.26266971  0.45394461    -0.09360
C700        C  0.70334730  0.26802945  0.45636914     0.06830
C701        C  0.69265271  0.30077862  0.47332752    -0.03130
C702        C  0.71155629  0.32686853  0.48832039    -0.07580
C703        C  0.74129835  0.32129732  0.48679963     0.05950
C704        C  0.75205036  0.28882717  0.46910165    -0.02610
Br705      Br  0.79198055  0.27637290  0.46766273    -0.02300
H706        H  0.74144083  0.23704116  0.44159218     0.09860
H707        H  0.70279152  0.35105178  0.50226968     0.07880
Br708      Br  0.65243848  0.30905527  0.48014217    -0.02730
C709        C  0.80986615  0.46146107  0.53931707    -0.09360
C710        C  0.83686634  0.44736714  0.54904069     0.06830
C711        C  0.84194661  0.40722977  0.54660013    -0.03130
C712        C  0.82063508  0.38294505  0.53333833    -0.07580
C713        C  0.79506690  0.39811068  0.51993038     0.05950
C714        C  0.78977836  0.43785382  0.52342304    -0.02610
Br715      Br  0.75723097  0.46310407  0.50383620    -0.02300
H716        H  0.80512281  0.49190579  0.54161457     0.09860
H717        H  0.82517247  0.35251139  0.53043316     0.07880
Br718      Br  0.87852181  0.38416587  0.55559930    -0.02730
C719        C  0.13904664  0.59619238  0.52239746    -0.09360
C720        C  0.16592051  0.58339412  0.53411408     0.06830
C721        C  0.19037652  0.60471422  0.52486273    -0.03130
C722        C  0.18785586  0.63572030  0.50215654    -0.07580
C723        C  0.16105668  0.64831685  0.48981162     0.05950
C724        C  0.13635113  0.62872179  0.50126890    -0.02610
Br725      Br  0.09823405  0.64610209  0.49161341    -0.02300
H726        H  0.11988452  0.58066456  0.52957510     0.09860
H727        H  0.20722195  0.65029580  0.49443349     0.07880
Br728      Br  0.22749556  0.59537879  0.54444869    -0.02730
C729        C  0.10484497  0.46731435  0.62028130    -0.09360
C730        C  0.12711758  0.49414177  0.62334706     0.06830
C731        C  0.12924410  0.51628301  0.65365453    -0.03130
C732        C  0.10838511  0.51310633  0.67921276    -0.07580
C733        C  0.08553227  0.48729986  0.67579544     0.05950
C734        C  0.08413291  0.46364300  0.64624969    -0.02610
Br735      Br  0.05320592  0.42846449  0.63846621    -0.02300
H736        H  0.10294722  0.45022751  0.59705185     0.09860
H737        H  0.11000286  0.53106885  0.70194101     0.07880
Br738      Br  0.16059790  0.55073168  0.66185349    -0.02730
C739        C  0.20924030  0.41388139  0.55786019    -0.09360
C740        C  0.20377447  0.44848091  0.53978861     0.06830
C741        C  0.21666280  0.45234239  0.50690257    -0.03130
C742        C  0.23768448  0.42650975  0.49644074    -0.07580
C743        C  0.24199215  0.39099529  0.51313255     0.05950
C744        C  0.22592697  0.38416133  0.54344231    -0.02610
Br745      Br  0.22062647  0.33405652  0.56295148    -0.02300
H746        H  0.19924568  0.40841697  0.58244322     0.09860
H747        H  0.24837394  0.43263684  0.47238696     0.07880
Br748      Br  0.20262451  0.48506899  0.47044020    -0.02730
C749        C  0.40378816  0.09040704  0.51427468    -0.09360
C750        C  0.37720411  0.07550264  0.52478851     0.06830
C751        C  0.35200202  0.09298548  0.51216122    -0.03130
C752        C  0.35381958  0.12314252  0.48847619    -0.07580
C753        C  0.38036266  0.13827805  0.47814299     0.05950
C754        C  0.40556438  0.12192287  0.49187533    -0.02610
Br755      Br  0.44286238  0.14318568  0.48386076    -0.02300
H756        H  0.42341279  0.07772480  0.52379283     0.09860
H757        H  0.33416736  0.13564202  0.47879210     0.07880
Br758      Br  0.31443391  0.08004746  0.52853458    -0.02730
C759        C  0.31088193  0.25919150  0.44844771    -0.09360
C760        C  0.34018827  0.26669656  0.45210872     0.06830
C761        C  0.34900346  0.29889437  0.47110555    -0.03130
C762        C  0.32863424  0.32199336  0.48741830    -0.07580
C763        C  0.29918926  0.31386286  0.48511636     0.05950
C764        C  0.29034032  0.28230256  0.46469672    -0.02610
Br765      Br  0.25135564  0.26554405  0.46141395    -0.02300
H766        H  0.30404933  0.23372379  0.43460800     0.09860
H767        H  0.33592907  0.34593348  0.50296459     0.07880
Br768      Br  0.38869401  0.31018582  0.47831633    -0.02730
C769        C  0.61152924  0.23144466  0.32252333    -0.09360
C770        C  0.58337300  0.21923891  0.32808519     0.06830
C771        C  0.57541335  0.20576318  0.36084528    -0.03130
C772        C  0.59558064  0.20452307  0.38740605    -0.07580
C773        C  0.62415559  0.21567872  0.38184527     0.05950
C774        C  0.63203819  0.22916154  0.34875567    -0.02610
Br775      Br  0.67075536  0.24144020  0.33644876    -0.02300
H776        H  0.61785398  0.24152107  0.29727080     0.09860
H777        H  0.58886663  0.19454843  0.41257296     0.07880
Br778      Br  0.53705772  0.18947762  0.37069265    -0.02730
C779        C  0.44047265  0.19065282  0.32412331    -0.09360
C780        C  0.46088244  0.22033081  0.32492026     0.06830
C781        C  0.45978084  0.24736495  0.35210465    -0.03130
C782        C  0.43882311  0.24395461  0.37780022    -0.07580
C783        C  0.41883556  0.21381326  0.37723480     0.05950
C784        C  0.41953742  0.18736043  0.34973848    -0.02610
Br785      Br  0.39171411  0.14712467  0.34514730    -0.02300
H786        H  0.44070007  0.16988644  0.30329469     0.09860
H787        H  0.43866476  0.26430043  0.39896301     0.07880
Br788      Br  0.48757701  0.28755298  0.35735033    -0.02730
C789        C  0.85668223  0.58875131  0.99049604    -0.09360
C790        C  0.88273878  0.57295230  0.97910812     0.06830
C791        C  0.90849763  0.59007685  0.99030013    -0.03130
C792        C  0.90766935  0.62317906  0.01094908    -0.07580
C793        C  0.88154920  0.63899904  0.02217430     0.05950
C794        C  0.85586203  0.62054334  0.01247750    -0.02610
Br795      Br  0.81901523  0.63452826  0.03072584    -0.02300
H796        H  0.83664314  0.57582515  0.98275551     0.09860
H797        H  0.92764203  0.63636442  0.01859847     0.07880
Br798      Br  0.94540293  0.56796143  0.98112320    -0.02730
C799        C  0.91815927  0.52682373  0.85141551    -0.09360
C800        C  0.91691783  0.49774978  0.87644353     0.06830
C801        C  0.93615401  0.46650004  0.87423685    -0.03130
C802        C  0.95638033  0.46513990  0.84764673    -0.07580
C803        C  0.95819690  0.49475696  0.82307015     0.05950
C804        C  0.93838841  0.52555695  0.82482967    -0.02610
Br805      Br  0.93682734  0.56604345  0.79115995    -0.02300
H806        H  0.90333150  0.55079917  0.85267141     0.09860
H807        H  0.97141514  0.44137945  0.84690840     0.07880
Br808      Br  0.93740133  0.42652787  0.90837279    -0.02730
C809        C  0.69310390  0.12075277  0.01188988    -0.09360
C810        C  0.66676462  0.13947779  0.01707332     0.06830
C811        C  0.64282746  0.12663687  0.99836371    -0.03130
C812        C  0.64481730  0.09381599  0.97769160    -0.07580
C813        C  0.67099093  0.07449293  0.97280381     0.05950
C814        C  0.69560929  0.08937590  0.98935022    -0.02610
Br815      Br  0.73369618  0.07132337  0.97992161    -0.02300
H816        H  0.71207305  0.13127705  0.02479475     0.09860
H817        H  0.62563916  0.08373991  0.96500520     0.07880
Br818      Br  0.60788474  0.15521425  0.99613858    -0.02730
C819        C  0.57528636  0.20604841  0.14092912    -0.09360
C820        C  0.58474430  0.21883877  0.17309023     0.06830
C821        C  0.61337686  0.23040431  0.17685747    -0.03130
C822        C  0.63237868  0.22730647  0.14894722    -0.07580
C823        C  0.62310777  0.21394129  0.11653515     0.05950
C824        C  0.59383054  0.20448678  0.11265363    -0.02610
Br825      Br  0.57664259  0.19326695  0.06915826    -0.02300
H826        H  0.55302017  0.19832807  0.13753356     0.09860
H827        H  0.65455790  0.23512152  0.15272721     0.07880
Br828      Br  0.62752749  0.24961099  0.21982131    -0.02730
C829        C  0.71474982  0.32855231  0.01751647    -0.09360
C830        C  0.74420317  0.32041487  0.01740458     0.06830
C831        C  0.75393771  0.28666704  0.03390718    -0.03130
C832        C  0.73416706  0.26113350  0.04849938    -0.07580
C833        C  0.70463926  0.26850822  0.04688282     0.05950
C834        C  0.69504681  0.30314313  0.03210273    -0.02610
Br835      Br  0.65513131  0.31484629  0.02712487    -0.02300
H836        H  0.70674551  0.35383287  0.00448877     0.09860
H837        H  0.74174031  0.23427153  0.05940591     0.07880
Br838      Br  0.79339131  0.27160938  0.03396144    -0.02730
C839        C  0.79156892  0.43155699  0.97814321    -0.09360
C840        C  0.79986936  0.39296156  0.98127421     0.06830
C841        C  0.82597437  0.38098878  0.96639704    -0.03130
C842        C  0.84439622  0.40836003  0.95182038    -0.07580
C843        C  0.83686234  0.44755538  0.95104309     0.05950
C844        C  0.80926221  0.45848712  0.96223607    -0.02610
Br845      Br  0.79435032  0.50969760  0.95644805    -0.02300
H846        H  0.77155776  0.44119559  0.98919283     0.09860
H847        H  0.86524814  0.39925064  0.94274513     0.07880
Br848      Br  0.83843359  0.32838810  0.96710331    -0.02730
C849        C  0.14199408  0.62300886  0.01490707    -0.09360
C850        C  0.16893827  0.63694660  0.02498477     0.06830
C851        C  0.19357943  0.61776792  0.01263980    -0.03130
C852        C  0.19093617  0.58698014  0.98968506    -0.07580
C853        C  0.16403090  0.57261902  0.97989165     0.05950
C854        C  0.13932379  0.59080397  0.99336855    -0.02610
Br855      Br  0.10137436  0.57147552  0.98655532    -0.02300
H856        H  0.12274807  0.63690267  0.02429036     0.09860
H857        H  0.21027120  0.57343253  0.98015623     0.07880
Br858      Br  0.23142519  0.62882316  0.02871752    -0.02730
C859        C  0.07355842  0.48957140  0.86127692    -0.09360
C860        C  0.08284836  0.48989329  0.82697827     0.06830
C861        C  0.11231295  0.49210704  0.81980684    -0.03130
C862        C  0.13201097  0.49508374  0.84687644    -0.07580
C863        C  0.12267505  0.49592518  0.88124698     0.05950
C864        C  0.09321460  0.49224957  0.88834583    -0.02610
Br865      Br  0.07893113  0.48882139  0.93452412    -0.02300
H866        H  0.05093865  0.48736839  0.86700278     0.09860
H867        H  0.15461732  0.49723846  0.84110185     0.07880
Br868      Br  0.12639910  0.49123733  0.77343312    -0.02730
C869        C  0.21346876  0.38302174  0.98168623    -0.09360
C870        C  0.24296922  0.39112896  0.98176296     0.06830
C871        C  0.25251738  0.42437082  0.96420409    -0.03130
C872        C  0.23258741  0.44999010  0.94993207    -0.07580
C873        C  0.20312216  0.44287411  0.95219268     0.05950
C874        C  0.19366689  0.40836446  0.96712296    -0.02610
Br875      Br  0.15377953  0.39643026  0.97161643    -0.02300
H876        H  0.20542727  0.35743279  0.99406985     0.09860
H877        H  0.24004788  0.47647649  0.93825811     0.07880
Br878      Br  0.29200630  0.43807138  0.96026245    -0.02730
C879        C  0.37832599  0.07143845  0.01391236    -0.09360
C880        C  0.37833942  0.07669373  0.97802789     0.06830
C881        C  0.37888362  0.11451893  0.96479603    -0.03130
C882        C  0.38024607  0.14591686  0.98731478    -0.07580
C883        C  0.38032178  0.14069777  0.02322564     0.05950
C884        C  0.37895084  0.10289170  0.03645123    -0.02610
Br885      Br  0.37539731  0.09229247  0.08475310    -0.02300
H886        H  0.37750183  0.04261267  0.02452962     0.09860
H887        H  0.38075204  0.17474026  0.97666052     0.07880
Br888      Br  0.37535588  0.12535901  0.91648483    -0.02730
C889        C  0.43873468  0.19684861  0.17757917    -0.09360
C890        C  0.46242995  0.22126453  0.17378884     0.06830
C891        C  0.46473993  0.24401865  0.14379968    -0.03130
C892        C  0.44364409  0.24173479  0.11822898    -0.07580
C893        C  0.42019205  0.21692429  0.12196141     0.05950
C894        C  0.41763151  0.19477881  0.15214364    -0.02610
Br895      Br  0.38529739  0.16208508  0.16013296    -0.02300
H896        H  0.43652532  0.17945245  0.20059070     0.09860
H897        H  0.44592867  0.25860385  0.09491779     0.07880
Br898      Br  0.49736250  0.27604513  0.13508792    -0.02730
C899        C  0.31011782  0.25876002  0.04728932    -0.09360
C900        C  0.33899094  0.26904134  0.05064572     0.06830
C901        C  0.34754595  0.30625921  0.04056231    -0.03130
C902        C  0.32771798  0.33116052  0.02522930    -0.07580
C903        C  0.29948635  0.31937269  0.01863053     0.05950
C904        C  0.29049440  0.28330954  0.03130119    -0.02610
Br905      Br  0.25238979  0.26440267  0.02587504    -0.02300
H906        H  0.30315151  0.23041938  0.05537559     0.09860
H907        H  0.33501713  0.35902195  0.01662008     0.07880
Br908      Br  0.38660932  0.32295078  0.04278076    -0.02730
C909        C  0.81289152  0.36692214  0.44996253    -0.09360
C910        C  0.78472552  0.37650602  0.45927533     0.06830
C911        C  0.76622733  0.39138192  0.43374164    -0.03130
C912        C  0.77685898  0.39895051  0.40064861    -0.07580
C913        C  0.80562509  0.39178998  0.39241599     0.05950
C914        C  0.82330363  0.37388483  0.41698707    -0.02610
Br915      Br  0.86148747  0.35663317  0.40693871    -0.02300
H916        H  0.82714952  0.35400522  0.46859830     0.09860
H917        H  0.76290749  0.41208565  0.38173038     0.07880
Br918      Br  0.72697457  0.40412253  0.44227052    -0.02730
C919        C  0.81658995  0.36276191  0.05434288    -0.09360
C920        C  0.78955203  0.37407070  0.04237458     0.06830
C921        C  0.77149823  0.39543626  0.06442416    -0.03130
C922        C  0.78082246  0.40513256  0.09757596    -0.07580
C923        C  0.80833046  0.39499463  0.10878440     0.05950
C924        C  0.82606694  0.37291190  0.08709714    -0.02610
Br925      Br  0.86326495  0.35513534  0.10084517    -0.02300
H926        H  0.83082532  0.34659727  0.03784906     0.09860
H927        H  0.76713935  0.42244007  0.11397931     0.07880
Br928      Br  0.73537237  0.41563830  0.04973997    -0.02730
C929        C  0.26268419  0.38815945  0.39907508    -0.09360
C930        C  0.23461559  0.37962275  0.38901662     0.06830
C931        C  0.21663229  0.35926435  0.41170500    -0.03130
C932        C  0.22607895  0.35074119  0.44482308    -0.07580
C933        C  0.25356107  0.36118258  0.45573723     0.05950
C934        C  0.27215403  0.37970212  0.43233969    -0.02610
Br935      Br  0.30805314  0.40133965  0.44621980    -0.02300
H936        H  0.27650081  0.40435758  0.38200542     0.09860
H937        H  0.21144378  0.33726734  0.46279741     0.07880
Br938      Br  0.17900978  0.34227565  0.39914625    -0.02730
C939        C  0.23276173  0.35540803  0.05784621    -0.09360
C940        C  0.25646669  0.37373797  0.04290811     0.06830
C941        C  0.27252009  0.39973333  0.06306464    -0.03130
C942        C  0.26360592  0.40870026  0.09647307    -0.07580
C943        C  0.23857289  0.39272387  0.10999347     0.05950
C944        C  0.22351493  0.36505242  0.09088246    -0.02610
Br945      Br  0.19017839  0.33972837  0.10867250    -0.02300
H946        H  0.22075285  0.33428067  0.04352492     0.09860
H947        H  0.27544758  0.42973727  0.11130438     0.07880
Br948      Br  0.30593133  0.42541432  0.04647455    -0.02730
C949        C  0.00557347  0.46389653  0.22651742    -0.09360
C950        C  0.99168463  0.48666107  0.25127777     0.06830
C951        C  0.00815625  0.50766492  0.27511820    -0.03130
C952        C  0.03799506  0.50548574  0.27380632    -0.07580
C953        C  0.05185550  0.48271516  0.24900303     0.05950
C954        C  0.03532327  0.46139175  0.22537755    -0.02610
Br955      Br  0.05145459  0.42525049  0.19325968    -0.02300
H956        H  0.99318439  0.44676148  0.20864396     0.09860
H957        H  0.05047024  0.52194639  0.29210286     0.07880
Br958      Br  0.99134117  0.54124124  0.30881856    -0.02730
C959        C  0.73263197  0.33996578  0.60097929    -0.09360
C960        C  0.74590262  0.30587988  0.61180725     0.06830
C961        C  0.76670363  0.28850693  0.59081401    -0.03130
C962        C  0.77262891  0.30411523  0.55840474    -0.07580
C963        C  0.75801541  0.33692342  0.54650846     0.05950
C964        C  0.73859854  0.35569557  0.56869576    -0.02610
Br965      Br  0.71804377  0.40116019  0.55591464    -0.02300
H966        H  0.71668154  0.35356949  0.61721595     0.09860
H967        H  0.78760834  0.28936671  0.54174251     0.07880
Br968      Br  0.78518356  0.24134328  0.60378818    -0.02730
C969        C  0.73351539  0.34556950  0.90276794    -0.09360
C970        C  0.74406814  0.31055891  0.89002602     0.06830
C971        C  0.76281539  0.28848085  0.91019836    -0.03130
C972        C  0.76978278  0.30080394  0.94333073    -0.07580
C973        C  0.75874066  0.33537052  0.95663323     0.05950
C974        C  0.74083334  0.35828090  0.93575650    -0.02610
Br975      Br  0.72406159  0.40554739  0.95142737    -0.02300
H976        H  0.71881491  0.36247540  0.88737089     0.09860
H977        H  0.78302832  0.28250522  0.95925461     0.07880
Br978      Br  0.77722860  0.23964970  0.89482900    -0.02730
C979        C  0.29812037  0.30228399  0.59701611    -0.09360
C980        C  0.31021392  0.33527153  0.61133735     0.06830
C981        C  0.31046622  0.36982377  0.59250140    -0.03130
C982        C  0.29864559  0.37083328  0.55935579    -0.07580
C983        C  0.28708749  0.33736599  0.54450512     0.05950
C984        C  0.28708572  0.30279720  0.56379866    -0.02610
Br985      Br  0.27198267  0.25510577  0.54698292    -0.02300
H986        H  0.29810001  0.27555617  0.61144165     0.09860
H987        H  0.29970578  0.39721490  0.54453811     0.07880
Br988      Br  0.32788026  0.41544353  0.61056485    -0.02730
C989        C  0.31506488  0.34735109  0.94458037    -0.09360
C990        C  0.28798115  0.33626469  0.95674613     0.06830
C991        C  0.26971968  0.31568596  0.93433139    -0.03130
C992        C  0.27941765  0.30494105  0.90159710    -0.07580
C993        C  0.30721369  0.31378175  0.89082795     0.05950
C994        C  0.32478970  0.33628693  0.91213337    -0.02610
Br995      Br  0.36194526  0.35374305  0.89800500    -0.02300
H996        H  0.32906663  0.36449292  0.96042177     0.09860
H997        H  0.26560742  0.28815404  0.88501056     0.07880
Br998      Br  0.23207705  0.29922661  0.94671906    -0.02730
C999        C  0.50869945  0.20814358  0.72719310    -0.09360
C1000       C  0.49453393  0.22980403  0.75245382     0.06830
C1001       C  0.51057982  0.24925088  0.77769732    -0.03130
C1002       C  0.54034502  0.24706392  0.77701542    -0.07580
C1003       C  0.55467658  0.22590212  0.75144253     0.05950
C1004       C  0.53853398  0.20567484  0.72667141    -0.02610
Br1005     Br  0.55557758  0.17257024  0.69274801    -0.02300
H1006       H  0.49644254  0.19291916  0.70784939     0.09860
H1007       H  0.55234603  0.26326967  0.79592369     0.07880
Br1008     Br  0.49350242  0.28226171  0.81172275    -0.02730
loop_ 
_geom_bond_atom_site_label_1 
_geom_bond_atom_site_label_2 
_geom_bond_distance 
_geom_bond_site_symmetry_2 
_ccdc_geom_bond_type 
N1            N2   1.322       .  A
N1            C5   1.342       .  A
N1           Cu9   2.062       .  S
N2            C3   1.345       .  A
N2           Cu8   2.068       .  S
C3            C4   1.381       .  A
C3            H6   1.081       .  S
C4            C5   1.381       .  A
C4          C993   1.470       .  S
C5            H7   1.082       .  S
Cu8          N11   2.069       .  S
Cu9          N19   2.061       .  S
Cu10         N12   2.063       .  S
Cu10         N18   2.062       .  S
N11          N12   1.321       .  A
N11          C15   1.344       .  A
N12          C13   1.343       .  A
C13          C14   1.381       .  A
C13          H16   1.082       .  S
C14          C15   1.382       .  A
C14         C980   1.464       .  S
C15          H17   1.081       .  S
N18          N19   1.321       .  A
N18          C22   1.342       .  A
N19          C20   1.343       .  A
C20          C21   1.381       .  A
C20          H23   1.082       .  S
C21          C22   1.380       .  A
C21        C1000   1.468       .  S
C22          H24   1.083       .  S
N25          N26   1.323       .  A
N25          C29   1.341       .  A
N25         Cu33   2.058       .  S
N26          C27   1.347       .  A
N26         Cu32   2.076       .  S
C27          C28   1.382       .  A
C27          H30   1.081       .  S
C28          C29   1.377       .  A
C28         C970   1.466       .  S
C29          H31   1.082       .  S
Cu32         N35   2.076       .  S
Cu33         N43   2.056       .  S
Cu34         N36   2.062       .  S
Cu34         N42   2.060       .  S
N35          N36   1.323       .  A
N35          C39   1.347       .  A
N36          C37   1.341       .  A
C37          C38   1.378       .  A
C37          H40   1.082       .  S
C38          C39   1.382       .  A
C38         C960   1.467       .  S
C39          H41   1.081       .  S
N42          N43   1.319       .  A
N42          C46   1.343       .  A
N43          C44   1.341       .  A
C44          C45   1.384       .  A
C44          H47   1.083       .  S
C45          C46   1.385       .  A
C45        C1003   1.476       .  S
C46          H48   1.082       .  S
N49          N50   1.322       .  A
N49          C53   1.340       .  A
N49         Cu57   2.060       .  S
N50          C51   1.345       .  A
N50         Cu56   2.067       .  S
C51          C52   1.383       .  A
C51          H54   1.081       .  S
C52          C53   1.381       .  A
C52         C930   1.471       .  S
C53          H55   1.082       .  S
Cu56         N59   2.067       .  S
Cu57         N67   2.059       .  S
Cu58         N60   2.060       .  S
Cu58         N66   2.059       .  S
N59          N60   1.322       .  A
N59          C63   1.345       .  A
N60          C61   1.341       .  A
C61          C62   1.379       .  A
C61          H64   1.082       .  S
C62          C63   1.380       .  A
C62         C943   1.466       .  S
C63          H65   1.081       .  S
N66          N67   1.320       .  A
N66          C70   1.342       .  A
N67          C68   1.343       .  A
C68          C69   1.382       .  A
C68          H71   1.083       .  S
C69          C70   1.383       .  A
C69         C953   1.473       .  S
C70          H72   1.082       .  S
N73          N74   1.322       .  A
N73          C77   1.340       .  A
N73         Cu81   2.062       .  S
N74          C75   1.347       .  A
N74         Cu80   2.078       .  S
C75          C76   1.385       .  A
C75          H78   1.081       .  S
C76          C77   1.381       .  A
C76         C913   1.476       .  S
C77          H79   1.082       .  S
Cu80         N83   2.077       .  S
Cu81         N91   2.061       .  S
Cu82         N84   2.062       .  S
Cu82         N90   2.061       .  S
N83          N84   1.322       .  A
N83          C87   1.347       .  A
N84          C85   1.342       .  A
C85          C86   1.381       .  A
C85          H88   1.082       .  S
C86          C87   1.383       .  A
C86         C923   1.473       .  S
C87          H89   1.081       .  S
N90          N91   1.320       .  A
N90          C94   1.341       .  A
N91          C92   1.343       .  A
C92          C93   1.384       .  A
C92          H95   1.082       .  S
C93          C94   1.384       .  A
C93         C950   1.474       .  S
C94          H96   1.083       .  S
C97          C98   1.405       .  A
C97         C102   1.406       .  A
C97         C893   1.479       .  S
C98          C99   1.405       .  A
C98         H103   1.084       .  S
C99         C100   1.403       .  A
C99         C900   1.483       .  S
C100        C101   1.401       .  A
C100        H104   1.084       .  S
C101        C102   1.405       .  A
C101        C883   1.488       .  S
C102        H105   1.083       .  S
C106        C107   1.363   1_556  D
C106        C903   1.498   1_556  S
C106        C990   1.494       .  S
C107        C870   1.499   1_554  S
C107        C940   1.491       .  S
C108        C109   1.404       .  A
C108        C113   1.409       .  A
C108        C863   1.482       .  S
C109        C110   1.402       .  A
C109        H114   1.084       .  S
C110        C111   1.400       .  A
C110        C873   1.478       .  S
C111        C112   1.406       .  A
C111        H115   1.084       .  S
C112        C113   1.409       .  A
C112        C853   1.497       .  S
C113        H116   1.082       .  S
C117        C118   1.361   1_556  D
C117        C830   1.491   1_556  S
C117        C973   1.485       .  S
C118        C840   1.489   1_554  S
C118        C920   1.488       .  S
C119        C120   1.411       .  A
C119        C124   1.414       .  A
C119        C823   1.499       .  S
C120        C121   1.405       .  A
C120        H125   1.084       .  S
C121        C122   1.399       .  A
C121        C833   1.479       .  S
C122        C123   1.399       .  A
C122        H126   1.085       .  S
C123        C124   1.410       .  A
C123        C810   1.489       .  S
C124        H127   1.082       .  S
C128        C129   1.407       .  A
C128        C133   1.406       .  A
C128        C800   1.483       .  S
C129        C130   1.405       .  A
C129        H134   1.084       .  S
C130        C131   1.403       .  A
C130        C843   1.486       .  S
C131        C132   1.402       .  A
C131        H135   1.084       .  S
C132        C133   1.404       .  A
C132        C790   1.491       .  S
C133        H136   1.082       .  S
O137       Cu145   2.023       .  S
O137        C147   1.279       .  A
O138       Cu145   2.015       .  S
O138        C148   1.277       .  A
O139       Cu145   2.022       .  S
O139        C149   1.278       .  A
O140       Cu145   2.029       .  S
O140        C150   1.280       .  A
O141       Cu146   2.004       .  S
O141        C150   1.277       .  A
O142       Cu146   2.015       .  S
O142        C149   1.278       .  A
O143       Cu146   2.015       .  S
O143        C148   1.278       .  A
O144       Cu146   2.008       .  S
O144        C147   1.278       .  A
Cu145      Cu146   2.373       .  S
C147        C890   1.479       .  S
C148        C770   1.473       .  S
C149        C820   1.476       .  S
C150        C780   1.486       .  S
C151        C152   1.407       .  A
C151        C156   1.410       .  A
C151        C783   1.485       .  S
C152        C153   1.402       .  A
C152        H157   1.084       .  S
C153        C154   1.396       .  A
C153        C760   1.473       .  S
C154        C155   1.400       .  A
C154        H158   1.085       .  S
C155        C156   1.408       .  A
C155        C753   1.490       .  S
C156        H159   1.082       .  S
C160        C161   1.407       .  A
C160        C165   1.402       .  A
C160        C730   1.481       .  S
C161        C162   1.416       .  A
C161        H166   1.080       .  S
C162        C163   1.410       .  A
C162        C740   1.512       .  S
C163        C164   1.402       .  A
C163        H167   1.073       .  S
C164        C165   1.398       .  A
C164        C720   1.491       .  S
C165        H168   1.084       .  S
C169        C170   1.371       .  D
C169        C763   1.500       .  S
C169        C983   1.489       .  S
C170        C743   1.515       .  S
C170        C933   1.490       .  S
C171        C172   1.363       .  D
C171        C703   1.491       .  S
C171        C963   1.487       .  S
C172        C713   1.494       .  S
C172        C910   1.493       .  S
C173        C174   1.408       .  A
C173        C178   1.410       .  A
C173        C773   1.493       .  S
C174        C175   1.404       .  A
C174        H179   1.083       .  S
C175        C176   1.399       .  A
C175        C700   1.476       .  S
C176        C177   1.400       .  A
C176        H180   1.084       .  S
C177        C178   1.405       .  A
C177        C690   1.486       .  S
C178        H181   1.083       .  S
C182        C183   1.411       .  A
C182        C187   1.408       .  A
C182        C680   1.493       .  S
C183        C184   1.408       .  A
C183        H188   1.080       .  S
C184        C185   1.408       .  A
C184        C710   1.495       .  S
C185        C186   1.398       .  A
C185        H189   1.083       .  S
C186        C187   1.401       .  A
C186        C670   1.487       .  S
C187        H190   1.083       .  S
O191       Cu199   2.002       .  S
O191        C201   1.278       .  A
O192       Cu199   2.008   1_655  S
O192        C202   1.277       .  A
O193       Cu199   2.009       .  S
O193        C203   1.277       .  A
O194       Cu199   2.008   1_655  S
O194        C204   1.277       .  A
O195       Cu200   2.016   1_655  S
O195        C204   1.278       .  A
O196       Cu200   2.023       .  S
O196        C203   1.279       .  A
O197       Cu200   2.015   1_655  S
O197        C202   1.279       .  A
O198       Cu200   2.022       .  S
O198        C201   1.279       .  A
Cu199      Cu200   2.373       .  S
C201        C733   1.478       .  S
C202        C803   1.485       .  S
C203        C860   1.472       .  S
C204        C683   1.471       .  S
N205        N206   1.322       .  A
N205        C209   1.342       .  A
N205       Cu213   2.060       .  S
N206        C207   1.344       .  A
N206       Cu212   2.062       .  S
C207        C208   1.379       .  A
C207        H210   1.081       .  S
C208        C209   1.378       .  A
C208        C643   1.462       .  S
C209        H211   1.082       .  S
Cu212       N215   2.063       .  S
Cu213       N223   2.058       .  S
Cu214       N216   2.066       .  S
Cu214       N222   2.065       .  S
N215        N216   1.323       .  A
N215        C219   1.344       .  A
N216        C217   1.342       .  A
C217        C218   1.379       .  A
C217        H220   1.082       .  S
C218        C219   1.378       .  A
C218        C653   1.462       .  S
C219        H221   1.081       .  S
N222        N223   1.320       .  A
N222        C226   1.343       .  A
N223        C224   1.340       .  A
C224        C225   1.384       .  A
C224        H227   1.083       .  S
C225        C226   1.385       .  A
C225        C660   1.476       .  S
C226        H228   1.082       .  S
N229        N230   1.322       .  A
N229        C233   1.342       .  A
N229       Cu237   2.061       .  S
N230        C231   1.345       .  A
N230       Cu236   2.065       .  S
C231        C232   1.379       .  A
C231        H234   1.081       .  S
C232        C233   1.379       .  A
C232        C630   1.463       .  S
C233        H235   1.082       .  S
Cu236       N239   2.065       .  S
Cu237       N247   2.060       .  S
Cu238       N240   2.064       .  S
Cu238       N246   2.063       .  S
N239        N240   1.322       .  A
N239        C243   1.344       .  A
N240        C241   1.343       .  A
C241        C242   1.381       .  A
C241        H244   1.082       .  S
C242        C243   1.381       .  A
C242        C623   1.469       .  S
C243        H245   1.081       .  S
N246        N247   1.321       .  A
N246        C250   1.343       .  A
N247        C248   1.342       .  A
C248        C249   1.382       .  A
C248        H251   1.082       .  S
C249        C250   1.381       .  A
C249        C663   1.470       .  S
C250        H252   1.083       .  S
N253        N254   1.323       .  A
N253        C257   1.341       .  A
N253       Cu261   2.062       .  S
N254        C255   1.347       .  A
N254       Cu260   2.077       .  S
C255        C256   1.383       .  A
C255        H258   1.081       .  S
C256        C257   1.380       .  A
C256        C600   1.471       .  S
C257        H259   1.082       .  S
Cu260       N263   2.076       .  S
Cu261       N271   2.061       .  S
Cu262       N264   2.056       .  S
Cu262       N270   2.055       .  S
N263        N264   1.322       .  A
N263        C267   1.347       .  A
N264        C265   1.341       .  A
C265        C266   1.378       .  A
C265        H268   1.082       .  S
C266        C267   1.382       .  A
C266        C593   1.467       .  S
C267        H269   1.081       .  S
N270        N271   1.320       .  A
N270        C274   1.340       .  A
N271        C272   1.344       .  A
C272        C273   1.382       .  A
C272        H275   1.083       .  S
C273        C274   1.381       .  A
C273        C610   1.469       .  S
C274        H276   1.082       .  S
N277        N278   1.322       .  A
N277        C281   1.341       .  A
N277       Cu285   2.057       .  S
N278        C279   1.347       .  A
N278       Cu284   2.078       .  S
C279        C280   1.385       .  A
C279        H282   1.081       .  S
C280        C281   1.380       .  A
C280        C580   1.472       .  S
C281        H283   1.082       .  S
Cu284       N287   2.078       .  S
Cu285       N295   2.055       .  S
Cu286       N288   2.061       .  S
Cu286       N294   2.060       .  S
N287        N288   1.323       .  A
N287        C291   1.347       .  A
N288        C289   1.340       .  A
C289        C290   1.380       .  A
C289        H292   1.082       .  S
C290        C291   1.385       .  A
C290        C573   1.473       .  S
C291        H293   1.081       .  S
N294        N295   1.319       .  A
N294        C298   1.344       .  A
N295        C296   1.340       .  A
C296        C297   1.383       .  A
C296        H299   1.083       .  S
C297        C298   1.385       .  A
C297        C613   1.473       .  S
C298        H300   1.082       .  S
C301        C302   1.408       .  A
C301        C306   1.407   1_545  A
C301        C550   1.488       .  S
C302        C303   1.407       .  A
C302        H307   1.083       .  S
C303        C304   1.402       .  A
C303        C750   1.491       .  S
C304        C305   1.400   1_545  A
C304        H308   1.084       .  S
C305        C306   1.402       .  A
C305        C560   1.474       .  S
C306        H309   1.084       .  S
C310        C311   1.362       .  D
C310        C543   1.487       .  S
C310        C603   1.487       .  S
C311        C563   1.495       .  S
C311        C650   1.490       .  S
C312        C313   1.411       .  A
C312        C317   1.408       .  A
C312        C530   1.485       .  S
C313        C314   1.409       .  A
C313        H318   1.082       .  S
C314        C315   1.401       .  A
C314        C723   1.499       .  S
C315        C316   1.402       .  A
C315        H319   1.084       .  S
C316        C317   1.405       .  A
C316        C540   1.485       .  S
C317        H320   1.084       .  S
C321        C322   1.406       .  A
C321        C326   1.406       .  A
C321        C510   1.484       .  S
C322        C323   1.407       .  A
C322        H327   1.083       .  S
C323        C324   1.405       .  A
C323        C850   1.494       .  S
C324        C325   1.406       .  A
C324        H328   1.084       .  S
C325        C326   1.405       .  A
C325        C523   1.484       .  S
C326        H329   1.084       .  S
C330        C331   1.406   1_545  A
C330        C335   1.405       .  A
C330        C493   1.482   1_545  S
C331        C332   1.404       .  A
C331        H336   1.084       .  S
C332        C333   1.403   1_565  A
C332        C500   1.478       .  S
C333        C334   1.403       .  A
C333        H337   1.084       .  S
C334        C335   1.404       .  A
C334        C880   1.486       .  S
C335        H338   1.083       .  S
C339        C340   1.361   1_556  D
C339        C520   1.495   1_556  S
C339        C590   1.487       .  S
C340        C503   1.497   1_554  S
C340        C640   1.487       .  S
C341        C342   1.361   1_556  D
C341        C470   1.497   1_556  S
C341        C583   1.493       .  S
C342        C480   1.497   1_554  S
C342        C633   1.486       .  S
C343        C344   1.410       .  A
C343        C348   1.408   1_545  A
C343        C460   1.494   1_545  S
C344        C345   1.409       .  A
C344        H349   1.083       .  S
C345        C346   1.402       .  A
C345        C813   1.497       .  S
C346        C347   1.401   1_545  A
C346        H350   1.082       .  S
C347        C348   1.402       .  A
C347        C483   1.476       .  S
C348        H351   1.082       .  S
C352        C353   1.408       .  A
C352        C357   1.413       .  A
C352        C450   1.492       .  S
C353        C354   1.404       .  A
C353        H358   1.083       .  S
C354        C355   1.400       .  A
C354        C793   1.490       .  S
C355        C356   1.403       .  A
C355        H359   1.084       .  S
C356        C357   1.409       .  A
C356        C473   1.489       .  S
C357        H360   1.083       .  S
O361       Cu369   2.021       .  S
O361        C371   1.279       .  A
O362       Cu369   2.018   1_655  S
O362        C372   1.279       .  A
O363       Cu369   2.020       .  S
O363        C373   1.278       .  A
O364       Cu369   2.018   1_655  S
O364        C374   1.280       .  A
O365       Cu370   2.017   1_655  S
O365        C374   1.278       .  A
O366       Cu370   2.017       .  S
O366        C373   1.278       .  A
O367       Cu370   2.011   1_655  S
O367        C372   1.278       .  A
O368       Cu370   2.012       .  S
O368        C371   1.278       .  A
Cu369      Cu370   2.370       .  S
C371        C513   1.484       .  S
C372        C443   1.483       .  S
C373        C533   1.474       .  S
C374        C453   1.491       .  S
C375        C376   1.402       .  A
C375        C380   1.407       .  A
C375        C440   1.481       .  S
C376        C377   1.403       .  A
C376        H381   1.084       .  S
C377        C378   1.403       .  A
C377        C673   1.489       .  S
C378        C379   1.410       .  A
C378        H382   1.082       .  S
C379        C380   1.409       .  A
C379        C430   1.497       .  S
C380        H383   1.082       .  S
C384        C385   1.406   1_565  A
C384        C389   1.405       .  A
C384        C410   1.480       .  S
C385        C386   1.405       .  A
C385        H390   1.084       .  S
C386        C387   1.401       .  A
C386        C693   1.486       .  S
C387        C388   1.402   1_545  A
C387        H391   1.084       .  S
C388        C389   1.404       .  A
C388        C420   1.477       .  S
C389        H392   1.084       .  S
C393        C394   1.360       .  D
C393        C433   1.494       .  S
C393        C570   1.492       .  S
C394        C423   1.496       .  S
C394        C620   1.488       .  S
O395       Cu403   2.008       .  S
O395        C405   1.277   1_545  A
O396       Cu403   2.008       .  S
O396        C406   1.278   1_545  A
O397       Cu403   2.008       .  S
O397        C407   1.277   1_545  A
O398       Cu403   2.009       .  S
O398        C408   1.277   1_545  A
O399       Cu404   2.021       .  S
O399        C408   1.279       .  A
O400       Cu404   2.018       .  S
O400        C407   1.278       .  A
O401       Cu404   2.019       .  S
O401        C406   1.279       .  A
O402       Cu404   2.021       .  S
O402        C405   1.279       .  A
Cu403      Cu404   2.371   1_545  S
C405        C490   1.485       .  S
C406        C413   1.483       .  S
C407        C553   1.471       .  S
C408        C463   1.476       .  S
C409        C410   1.402       .  A
C409        C414   1.403       .  A
C409        H416   1.084       .  S
C410        C411   1.408   1_565  A
C411        C412   1.398       .  A
C411       Br418   1.919       .  S
C412        C413   1.405   1_545  A
C412        H417   1.084       .  S
C413        C414   1.415       .  A
C414       Br415   1.920       .  S
C419        C420   1.402       .  A
C419        C424   1.399       .  A
C419        H426   1.084       .  S
C420        C421   1.406       .  A
C421        C422   1.398       .  A
C421       Br428   1.919       .  S
C422        C423   1.407       .  A
C422        H427   1.080       .  S
C423        C424   1.412       .  A
C424       Br425   1.911       .  S
C429        C430   1.409       .  A
C429        C434   1.398       .  A
C429        H436   1.083       .  S
C430        C431   1.417       .  A
C431        C432   1.400       .  A
C431       Br438   1.916       .  S
C432        C433   1.399       .  A
C432        H437   1.079       .  S
C433        C434   1.407       .  A
C434       Br435   1.917       .  S
C439        C440   1.402       .  A
C439        C444   1.400       .  A
C439        H446   1.083       .  S
C440        C441   1.408       .  A
C441        C442   1.401       .  A
C441       Br448   1.916       .  S
C442        C443   1.405       .  A
C442        H447   1.083       .  S
C443        C444   1.414       .  A
C444       Br445   1.918       .  S
C449        C450   1.405       .  A
C449        C454   1.401       .  A
C449        H456   1.083       .  S
C450        C451   1.411       .  A
C451        C452   1.401       .  A
C451       Br458   1.915       .  S
C452        C453   1.407       .  A
C452        H457   1.083       .  S
C453        C454   1.416       .  A
C454       Br455   1.920       .  S
C459        C460   1.408   1_545  A
C459        C464   1.398       .  A
C459        H466   1.084       .  S
C460        C461   1.416       .  A
C461        C462   1.404       .  A
C461       Br468   1.920       .  S
C462        C463   1.402       .  A
C462        H467   1.084       .  S
C463        C464   1.406   1_565  A
C464       Br465   1.920       .  S
C469        C470   1.405       .  A
C469        C474   1.401       .  A
C469        H476   1.080       .  S
C470        C471   1.408       .  A
C471        C472   1.399       .  A
C471       Br478   1.913       .  S
C472        C473   1.406       .  A
C472        H477   1.083       .  S
C473        C474   1.410       .  A
C474       Br475   1.913       .  S
C479        C480   1.405       .  A
C479        C484   1.397       .  A
C479        H486   1.080       .  S
C480        C481   1.416       .  A
C481        C482   1.399       .  A
C481       Br488   1.916   1_556  S
C482        C483   1.398       .  A
C482        H487   1.083       .  S
C483        C484   1.407       .  A
C484       Br485   1.918       .  S
C489        C490   1.407       .  A
C489        C494   1.403       .  A
C489        H496   1.083       .  S
C490        C491   1.414   1_565  A
C491        C492   1.399       .  A
C491       Br498   1.922       .  S
C492        C493   1.402   1_545  A
C492        H497   1.083       .  S
C493        C494   1.409       .  A
C494       Br495   1.919       .  S
C499        C500   1.399       .  A
C499        C504   1.398       .  A
C499        H506   1.083       .  S
C500        C501   1.408       .  A
C501        C502   1.400       .  A
C501       Br508   1.918       .  S
C502        C503   1.405       .  A
C502        H507   1.081       .  S
C503        C504   1.415       .  A
C504       Br505   1.915   1_556  S
C509        C510   1.404       .  A
C509        C514   1.403       .  A
C509        H516   1.084       .  S
C510        C511   1.408       .  A
C511        C512   1.400       .  A
C511       Br518   1.918       .  S
C512        C513   1.405       .  A
C512        H517   1.084       .  S
C513        C514   1.414       .  A
C514       Br515   1.920       .  S
C519        C520   1.402       .  A
C519        C524   1.397       .  A
C519        H526   1.079       .  S
C520        C521   1.413       .  A
C521        C522   1.402       .  A
C521       Br528   1.913       .  S
C522        C523   1.402       .  A
C522        H527   1.083       .  S
C523        C524   1.408       .  A
C524       Br525   1.915       .  S
C529        C530   1.406       .  A
C529        C534   1.405       .  A
C529        H536   1.083       .  S
C530        C531   1.411       .  A
C531        C532   1.400       .  A
C531       Br538   1.919       .  S
C532        C533   1.401       .  A
C532        H537   1.083       .  S
C533        C534   1.408       .  A
C534       Br535   1.918       .  S
C539        C540   1.406       .  A
C539        C544   1.406       .  A
C539        H546   1.083       .  S
C540        C541   1.411       .  A
C541        C542   1.390       .  A
C541       Br548   1.921       .  S
C542        C543   1.398       .  A
C542        H547   1.081       .  S
C543        C544   1.412       .  A
C544       Br545   1.916       .  S
C549        C550   1.407   1_565  A
C549        C554   1.402       .  A
C549        H556   1.083       .  S
C550        C551   1.415       .  A
C551        C552   1.399       .  A
C551       Br558   1.922       .  S
C552        C553   1.400   1_545  A
C552        H557   1.083       .  S
C553        C554   1.406       .  A
C554       Br555   1.919       .  S
C559        C560   1.397       .  A
C559        C564   1.396       .  A
C559        H566   1.083       .  S
C560        C561   1.408       .  A
C561        C562   1.399       .  A
C561       Br568   1.917       .  S
C562        C563   1.406       .  A
C562        H567   1.082       .  S
C563        C564   1.413       .  A
C564       Br565   1.912       .  S
C569        C570   1.407       .  A
C569        C574   1.401       .  A
C569        H576   1.082       .  S
C570        C571   1.413       .  A
C571        C572   1.393       .  A
C571       Br578   1.917       .  S
C572        C573   1.399       .  A
C572        H577   1.083       .  S
C573        C574   1.407       .  A
C574       Br575   1.917       .  S
C579        C580   1.401       .  A
C579        C584   1.400       .  A
C579        H586   1.083       .  S
C580        C581   1.406       .  A
C581        C582   1.394       .  A
C581       Br588   1.920       .  S
C582        C583   1.405       .  A
C582        H587   1.079       .  S
C583        C584   1.412       .  A
C584       Br585   1.911       .  S
C589        C590   1.402       .  A
C589        C594   1.395       .  A
C589        H596   1.079       .  S
C590        C591   1.411       .  A
C591        C592   1.398       .  A
C591       Br598   1.913       .  S
C592        C593   1.399       .  A
C592        H597   1.083       .  S
C593        C594   1.406       .  A
C594       Br595   1.919       .  S
C599        C600   1.402       .  A
C599        C604   1.400       .  A
C599        H606   1.083       .  S
C600        C601   1.407       .  A
C601        C602   1.394       .  A
C601       Br608   1.920       .  S
C602        C603   1.402       .  A
C602        H607   1.080       .  S
C603        C604   1.410       .  A
C604       Br605   1.914       .  S
C609        C610   1.403       .  A
C609        C614   1.398       .  A
C609        H616   1.084       .  S
C610        C611   1.409       .  A
C611        C612   1.392       .  A
C611       Br618   1.922       .  S
C612        C613   1.403   1_455  A
C612        H617   1.083   1_455  S
C613        C614   1.410   1_655  A
C614       Br615   1.919   1_455  S
C619        C620   1.404       .  A
C619        C624   1.397       .  A
C619        H626   1.081       .  S
C620        C621   1.410       .  A
C621        C622   1.396       .  A
C621       Br628   1.912       .  S
C622        C623   1.399       .  A
C622        H627   1.084       .  S
C623        C624   1.407       .  A
C624       Br625   1.919       .  S
C629        C630   1.397       .  A
C629        C634   1.396       .  A
C629        H636   1.083       .  S
C630        C631   1.406       .  A
C631        C632   1.397       .  A
C631       Br638   1.918       .  S
C632        C633   1.402       .  A
C632        H637   1.080       .  S
C633        C634   1.412       .  A
C634       Br635   1.917       .  S
C639        C640   1.404       .  A
C639        C644   1.396       .  A
C639        H646   1.080       .  S
C640        C641   1.412       .  A
C641        C642   1.395       .  A
C641       Br648   1.915       .  S
C642        C643   1.397       .  A
C642        H647   1.084       .  S
C643        C644   1.404       .  A
C644       Br645   1.918       .  S
C649        C650   1.407       .  A
C649        C654   1.393       .  A
C649        H656   1.083       .  S
C650        C651   1.415       .  A
C651        C652   1.399       .  A
C651       Br658   1.915       .  S
C652        C653   1.399       .  A
C652        H657   1.084       .  S
C653        C654   1.400       .  A
C654       Br655   1.918       .  S
C659        C660   1.404       .  A
C659        C664   1.393       .  A
C659        H666   1.083       .  S
C660        C661   1.411   1_565  A
C661        C662   1.398       .  A
C661       Br668   1.920       .  S
C662        C663   1.402   1_545  A
C662        H667   1.084       .  S
C663        C664   1.409       .  A
C664       Br665   1.922       .  S
C669        C670   1.405       .  A
C669        C674   1.400       .  A
C669        H676   1.084       .  S
C670        C671   1.412       .  A
C671        C672   1.399       .  A
C671       Br678   1.922       .  S
C672        C673   1.405       .  A
C672        H677   1.084       .  S
C673        C674   1.414       .  A
C674       Br675   1.921       .  S
C679        C680   1.408       .  A
C679        C684   1.396       .  A
C679        H686   1.084       .  S
C680        C681   1.417       .  A
C681        C682   1.403       .  A
C681       Br688   1.920       .  S
C682        C683   1.401       .  A
C682        H687   1.084       .  S
C683        C684   1.404       .  A
C684       Br685   1.919   1_655  S
C689        C690   1.403       .  A
C689        C694   1.399       .  A
C689        H696   1.084       .  S
C690        C691   1.414       .  A
C691        C692   1.398       .  A
C691       Br698   1.922       .  S
C692        C693   1.403       .  A
C692        H697   1.084       .  S
C693        C694   1.414       .  A
C694       Br695   1.922       .  S
C699        C700   1.404       .  A
C699        C704   1.402       .  A
C699        H706   1.083       .  S
C700        C701   1.405       .  A
C701        C702   1.395       .  A
C701       Br708   1.919       .  S
C702        C703   1.405       .  A
C702        H707   1.079       .  S
C703        C704   1.412       .  A
C704       Br705   1.916       .  S
C709        C710   1.405       .  A
C709        C714   1.393       .  A
C709        H716   1.083       .  S
C710        C711   1.416       .  A
C711        C712   1.405       .  A
C711       Br718   1.919       .  S
C712        C713   1.406       .  A
C712        H717   1.083       .  S
C713        C714   1.408       .  A
C714       Br715   1.913       .  S
C719        C720   1.408       .  A
C719        C724   1.402       .  A
C719        H726   1.083       .  S
C720        C721   1.410       .  A
C721        C722   1.397       .  A
C721       Br728   1.922       .  S
C722        C723   1.411       .  A
C722        H727   1.080       .  S
C723        C724   1.413       .  A
C724       Br725   1.918       .  S
C729        C730   1.404       .  A
C729        C734   1.403       .  A
C729        H736   1.084       .  S
C730        C731   1.410       .  A
C731        C732   1.395       .  A
C731       Br738   1.921       .  S
C732        C733   1.402       .  A
C732        H737   1.084       .  S
C733        C734   1.413       .  A
C734       Br735   1.919       .  S
C739        C740   1.415       .  A
C739        C744   1.408       .  A
C739        H746   1.080       .  S
C740        C741   1.418       .  A
C741        C742   1.389       .  A
C741       Br748   1.931       .  S
C742        C743   1.408       .  A
C742        H747   1.081       .  S
C743        C744   1.416       .  A
C744       Br745   1.914       .  S
C749        C750   1.407       .  A
C749        C754   1.401       .  A
C749        H756   1.082       .  S
C750        C751   1.413       .  A
C751        C752   1.397       .  A
C751       Br758   1.921       .  S
C752        C753   1.407       .  A
C752        H757   1.083       .  S
C753        C754   1.412       .  A
C754       Br755   1.920       .  S
C759        C760   1.402       .  A
C759        C764   1.400       .  A
C759        H766   1.084       .  S
C760        C761   1.402       .  A
C761        C762   1.395       .  A
C761       Br768   1.918       .  S
C762        C763   1.409       .  A
C762        H767   1.083       .  S
C763        C764   1.415       .  A
C764       Br765   1.919       .  S
C769        C770   1.400       .  A
C769        C774   1.402       .  A
C769        H776   1.083       .  S
C770        C771   1.406       .  A
C771        C772   1.399       .  A
C771       Br778   1.919       .  S
C772        C773   1.408       .  A
C772        H777   1.084       .  S
C773        C774   1.417       .  A
C774       Br775   1.920       .  S
C779        C780   1.406       .  A
C779        C784   1.400       .  A
C779        H786   1.084       .  S
C780        C781   1.414       .  A
C781        C782   1.403       .  A
C781       Br788   1.920       .  S
C782        C783   1.405       .  A
C782        H787   1.084       .  S
C783        C784   1.409       .  A
C784       Br785   1.919       .  S
C789        C790   1.406       .  A
C789        C794   1.396   1_556  A
C789        H796   1.082       .  S
C790        C791   1.413       .  A
C791        C792   1.402   1_556  A
C791       Br798   1.920       .  S
C792        C793   1.407       .  A
C792        H797   1.083       .  S
C793        C794   1.414       .  A
C794       Br795   1.923       .  S
C799        C800   1.403       .  A
C799        C804   1.400       .  A
C799        H806   1.083       .  S
C800        C801   1.410       .  A
C801        C802   1.400       .  A
C801       Br808   1.921       .  S
C802        C803   1.406       .  A
C802        H807   1.083       .  S
C803        C804   1.415       .  A
C804       Br805   1.922       .  S
C809        C810   1.405       .  A
C809        C814   1.402   1_554  A
C809        H816   1.083       .  S
C810        C811   1.408   1_554  A
C811        C812   1.397       .  A
C811       Br818   1.912       .  S
C812        C813   1.407       .  A
C812        H817   1.082       .  S
C813        C814   1.417       .  A
C814       Br815   1.921       .  S
C819        C820   1.398       .  A
C819        C824   1.399       .  A
C819        H826   1.084       .  S
C820        C821   1.406       .  A
C821        C822   1.405       .  A
C821       Br828   1.916       .  S
C822        C823   1.411       .  A
C822        H827   1.082       .  S
C823        C824   1.416       .  A
C824       Br825   1.912       .  S
C829        C830   1.405       .  A
C829        C834   1.396       .  A
C829        H836   1.080       .  S
C830        C831   1.411       .  A
C831        C832   1.401       .  A
C831       Br838   1.916       .  S
C832        C833   1.405       .  A
C832        H837   1.083       .  S
C833        C834   1.406       .  A
C834       Br835   1.919       .  S
C839        C840   1.400       .  A
C839        C844   1.394       .  A
C839        H846   1.081       .  S
C840        C841   1.411       .  A
C841        C842   1.403       .  A
C841       Br848   1.916       .  S
C842        C843   1.405       .  A
C842        H847   1.083       .  S
C843        C844   1.412       .  A
C844       Br845   1.922       .  S
C849        C850   1.406       .  A
C849        C854   1.402   1_554  A
C849        H856   1.083       .  S
C850        C851   1.413       .  A
C851        C852   1.398   1_554  A
C851       Br858   1.916       .  S
C852        C853   1.407       .  A
C852        H857   1.083       .  S
C853        C854   1.415       .  A
C854       Br855   1.917       .  S
C859        C860   1.401       .  A
C859        C864   1.400       .  A
C859        H866   1.083       .  S
C860        C861   1.407       .  A
C861        C862   1.403       .  A
C861       Br868   1.918       .  S
C862        C863   1.405       .  A
C862        H867   1.083       .  S
C863        C864   1.410       .  A
C864       Br865   1.917       .  S
C869        C870   1.408       .  A
C869        C874   1.396       .  A
C869        H876   1.079       .  S
C870        C871   1.414       .  A
C871        C872   1.402       .  A
C871       Br878   1.913       .  S
C872        C873   1.403       .  A
C872        H877   1.084       .  S
C873        C874   1.403       .  A
C874       Br875   1.919       .  S
C879        C880   1.406   1_554  A
C879        C884   1.400       .  A
C879        H886   1.083       .  S
C880        C881   1.411       .  A
C881        C882   1.399       .  A
C881       Br888   1.921       .  S
C882        C883   1.407   1_556  A
C882        H887   1.083       .  S
C883        C884   1.411       .  A
C884       Br885   1.919       .  S
C889        C890   1.404       .  A
C889        C894   1.399       .  A
C889        H896   1.084       .  S
C890        C891   1.412       .  A
C891        C892   1.403       .  A
C891       Br898   1.919       .  S
C892        C893   1.403       .  A
C892        H897   1.084       .  S
C893        C894   1.407       .  A
C894       Br895   1.917       .  S
C899        C900   1.403       .  A
C899        C904   1.397       .  A
C899        H906   1.084       .  S
C900        C901   1.409       .  A
C901        C902   1.400       .  A
C901       Br908   1.919       .  S
C902        C903   1.406       .  A
C902        H907   1.080       .  S
C903        C904   1.410       .  A
C904       Br905   1.912       .  S
C909        C910   1.404       .  A
C909        C914   1.391       .  A
C909        H916   1.081       .  S
C910        C911   1.414       .  A
C911        C912   1.403       .  A
C911       Br918   1.915       .  S
C912        C913   1.404       .  A
C912        H917   1.083       .  S
C913        C914   1.407       .  A
C914       Br915   1.921       .  S
C919        C920   1.403       .  A
C919        C924   1.393       .  A
C919        H926   1.080       .  S
C920        C921   1.411       .  A
C921        C922   1.401       .  A
C921       Br928   1.915       .  S
C922        C923   1.402       .  A
C922        H927   1.083       .  S
C923        C924   1.407       .  A
C924       Br925   1.920       .  S
C929        C930   1.402       .  A
C929        C934   1.398       .  A
C929        H936   1.083       .  S
C930        C931   1.409       .  A
C931        C932   1.392       .  A
C931       Br938   1.920       .  S
C932        C933   1.402       .  A
C932        H937   1.084       .  S
C933        C934   1.413       .  A
C934       Br935   1.918       .  S
C939        C940   1.404       .  A
C939        C944   1.394       .  A
C939        H946   1.079       .  S
C940        C941   1.412       .  A
C941        C942   1.398       .  A
C941       Br948   1.911       .  S
C942        C943   1.398       .  A
C942        H947   1.084       .  S
C943        C944   1.405       .  A
C944       Br945   1.919       .  S
C949        C950   1.403   1_455  A
C949        C954   1.394       .  A
C949        H956   1.083   1_455  S
C950        C951   1.409   1_655  A
C951        C952   1.398       .  A
C951       Br958   1.919   1_455  S
C952        C953   1.403       .  A
C952        H957   1.084       .  S
C953        C954   1.411       .  A
C954       Br955   1.922       .  S
C959        C960   1.400       .  A
C959        C964   1.396       .  A
C959        H966   1.084       .  S
C960        C961   1.404       .  A
C961        C962   1.398       .  A
C961       Br968   1.918       .  S
C962        C963   1.406       .  A
C962        H967   1.081       .  S
C963        C964   1.410       .  A
C964       Br965   1.912       .  S
C969        C970   1.401       .  A
C969        C974   1.398       .  A
C969        H976   1.084       .  S
C970        C971   1.403       .  A
C971        C972   1.395       .  A
C971       Br978   1.918       .  S
C972        C973   1.404       .  A
C972        H977   1.081       .  S
C973        C974   1.411       .  A
C974       Br975   1.916       .  S
C979        C980   1.394       .  A
C979        C984   1.390       .  A
C979        H986   1.084       .  S
C980        C981   1.405       .  A
C981        C982   1.402       .  A
C981       Br988   1.916       .  S
C982        C983   1.406       .  A
C982        H987   1.083       .  S
C983        C984   1.415       .  A
C984       Br985   1.916       .  S
C989        C990   1.405       .  A
C989        C994   1.393       .  A
C989        H996   1.079       .  S
C990        C991   1.415       .  A
C991        C992   1.400       .  A
C991       Br998   1.912       .  S
C992        C993   1.399       .  A
C992        H997   1.084       .  S
C993        C994   1.405       .  A
C994       Br995   1.920       .  S
C999       C1000   1.401       .  A
C999       C1004   1.397       .  A
C999       H1006   1.084       .  S
C1000      C1001   1.408       .  A
C1001      C1002   1.394       .  A
C1001     Br1008   1.921       .  S
C1002      C1003   1.404       .  A
C1002      H1007   1.083       .  S
C1003      C1004   1.412       .  A
C1004     Br1005   1.920       .  S
