geometry optimzed in LAMMPS
_audit_creation_date              2020-11-30 
_audit_creation_method            'lammps2cif' 
_symmetry_space_group_name_H-M    'P1' 
_symmetry_Int_Tables_number       1 
_symmetry_cell_setting            triclinic 
loop_ 
_symmetry_equiv_pos_as_xyz 
  x,y,z 
_cell_length_a                    48.89564642 
_cell_length_b                    48.89537967217822 
_cell_length_c                    36.61952684297959 
_cell_angle_alpha                 89.98063682157927 
_cell_angle_beta                  90.00056870942181 
_cell_angle_gamma                 90.00054082249278 
loop_ 
_atom_site_label 
_atom_site_type_symbol 
_atom_site_fract_x 
_atom_site_fract_y 
_atom_site_fract_z 
_atom_site_charge 
O1          O  0.20463633  0.47460903  0.00057622    -0.69900
O2          O  0.12751991  0.47605046  0.49900419    -0.70100
O3          O  0.16681047  0.47429019  0.44739048    -0.70000
O4          O  0.16444799  0.47631879  0.05125449    -0.70000
O5          O  0.16617885  0.02015926  0.05107685    -0.70000
O6          O  0.16685751  0.01893701  0.44753884    -0.70000
O7          O  0.12648818  0.02060063  0.00001839    -0.69900
O8          O  0.20750420  0.01816194  0.49753647    -0.70100
V9          V  0.16678360  0.47572432  0.49921847     1.35200
V10         V  0.16825958  0.01826059  0.49945127     1.35200
C11         C  0.22040736  0.99569625  0.49887801     0.79300
C12         C  0.11452335  0.49851717  0.50024498     0.79400
C13         C  0.16654274  0.49635352  0.42950205     0.79300
C14         C  0.16556927  0.49878483  0.06818676     0.79200
O15         O  0.20811780  0.01783121  0.24862498    -0.69900
O16         O  0.12956951  0.02095657  0.25142846    -0.70100
O17         O  0.16978710  0.01886302  0.30169939    -0.70000
O18         O  0.16785920  0.02005759  0.19800211    -0.70000
O19         O  0.16696271  0.47638184  0.19635762    -0.70000
O20         O  0.16648791  0.47456399  0.30006857    -0.70000
O21         O  0.12766331  0.47691751  0.24791647    -0.69900
O22         O  0.20610385  0.47417283  0.24845903    -0.70100
V23         V  0.16883638  0.01857629  0.24986459     1.35200
V24         V  0.16685987  0.47637209  0.24821848     1.35200
C25         C  0.22022118  0.49592618  0.24812700     0.79300
C26         C  0.11475543  0.49936104  0.25051041     0.79400
C27         C  0.16779129  0.49646119  0.31825248     0.79300
C28         C  0.16663892  0.49890597  0.17951953     0.79200
O29         O  0.49200199  0.30521659  0.99997369    -0.69900
O30         O  0.49174747  0.38284377  0.50398028    -0.70100
O31         O  0.49271620  0.34423670  0.45093828    -0.70000
O32         O  0.49142186  0.34260251  0.05442225    -0.70000
O33         O  0.03621284  0.34562484  0.05392080    -0.70000
O34         O  0.03690078  0.34428793  0.45075432    -0.70000
O35         O  0.03447401  0.38457118  0.00158364    -0.69900
O36         O  0.03775313  0.30605769  0.50412493    -0.70100
V37         V  0.49352260  0.34361826  0.50288569     1.35200
V38         V  0.03597528  0.34537562  0.50255352     1.35200
C39         C  0.01587172  0.29213273  0.50266857     0.79300
C40         C  0.01332243  0.39770666  0.50271312     0.79400
C41         C  0.01469145  0.34500896  0.43323425     0.79300
C42         C  0.01420073  0.34452943  0.07188502     0.79200
O43         O  0.49323954  0.30601206  0.25159431    -0.69900
O44         O  0.49210735  0.38452389  0.25411014    -0.70100
O45         O  0.49226833  0.34599943  0.20096427    -0.70000
O46         O  0.49296362  0.34435526  0.30468910    -0.70000
O47         O  0.03719927  0.34700885  0.30430697    -0.70000
O48         O  0.03702383  0.34526366  0.20057133    -0.70000
O49         O  0.03626230  0.38533214  0.25110541    -0.69900
O50         O  0.03775803  0.30683652  0.25337025    -0.70100
V51         V  0.49351342  0.34524902  0.25282518     1.35200
V52         V  0.03621329  0.34610561  0.25239816     1.35200
C53         C  0.01578992  0.29309795  0.25173084     0.79300
C54         C  0.01397015  0.39858001  0.25298883     0.79400
C55         C  0.01476064  0.34584719  0.18315299     0.79300
C56         C  0.01503213  0.34563324  0.32191622     0.79200
O57         O  0.31899508  0.47364726  0.49835876    -0.69900
O58         O  0.39568008  0.47654854  0.00231680    -0.70100
O59         O  0.35513439  0.47580682  0.05172632    -0.70000
O60         O  0.35926718  0.47424158  0.44781745    -0.70000
O61         O  0.35719242  0.01964212  0.44856905    -0.70000
O62         O  0.35534770  0.01889572  0.05206407    -0.70000
O63         O  0.39693109  0.02053744  0.49975374    -0.69900
O64         O  0.31568406  0.01795168  0.00058581    -0.70100
V65         V  0.35650648  0.47632687  0.00004346     1.35200
V66         V  0.35490384  0.01791287  0.00010332     1.35200
C67         C  0.30342365  0.49643594  0.99862925     0.79300
C68         C  0.40894528  0.49885118  0.00090891     0.79400
C69         C  0.35529002  0.49815899  0.06887196     0.79300
C70         C  0.35792569  0.49627697  0.42990222     0.79200
O71         O  0.31812676  0.01743018  0.25218638    -0.69900
O72         O  0.39654882  0.02057678  0.24777420    -0.70100
O73         O  0.35560907  0.01868461  0.19832905    -0.70000
O74         O  0.35893436  0.01939421  0.30196753    -0.70000
O75         O  0.35836754  0.47427681  0.30060875    -0.70000
O76         O  0.35896428  0.47521074  0.19690699    -0.70000
O77         O  0.39807841  0.47627195  0.24942944    -0.69900
O78         O  0.31936650  0.47352850  0.24815858    -0.70100
V79         V  0.35734080  0.01817889  0.25011966     1.35200
V80         V  0.35869189  0.47566425  0.24876259     1.35200
C81         C  0.30528882  0.49533039  0.24905914     0.79300
C82         C  0.41097589  0.49885408  0.24868176     0.79400
C83         C  0.35730614  0.49755522  0.17977829     0.79300
C84         C  0.35822132  0.49635977  0.31844995     0.79200
N85         N  0.47994382  0.02922764  0.99747642    -0.34700
N86         N  0.04074919  0.02942200  0.00067769    -0.55300
N87         N  0.04249466  0.46954479  0.50095260    -0.34700
N88         N  0.48258902  0.46872675  0.50304681    -0.55300
C89         C  0.48554118  0.05570537  0.00640267     0.28800
C90         C  0.45379293  0.02358900  0.00792643     0.28800
C91         C  0.06850323  0.47542677  0.51148918     0.28800
C92         C  0.03664229  0.44374461  0.51233659     0.28800
C93         C  0.03521101  0.05513799  0.98868682     0.37500
C94         C  0.06683674  0.02354083  0.99041595     0.37500
C95         C  0.45653848  0.47400486  0.49206698     0.37500
C96         C  0.48816777  0.44234950  0.49374777     0.37500
C97         C  0.46274277  0.06677102  0.02349343    -0.20000
C98         C  0.44288303  0.04669611  0.02441276    -0.20000
C99         C  0.07890010  0.45340158  0.53094452    -0.20000
C100        C  0.05890346  0.43350353  0.53145048    -0.20000
C101        C  0.05765742  0.06524984  0.96986803    -0.21100
C102        C  0.07755742  0.04534913  0.97092703    -0.21900
C103        C  0.44590433  0.45103630  0.47495962    -0.21100
C104        C  0.46575567  0.43114337  0.47607640    -0.21100
C105        C  0.01089504  0.07004142  0.99706162    -0.16400
C106        C  0.44191068  0.49867825  0.49964643    -0.16400
C107        C  0.01257456  0.42881583  0.50297175    -0.16400
C108        C  0.08341360  0.49927231  0.50104763    -0.16400
H109        H  0.46049294  0.08701192  0.03494236     0.16500
H110        H  0.42291030  0.04899946  0.03667794     0.16500
H111        H  0.09875308  0.45168813  0.54375487     0.16500
H112        H  0.06069520  0.41381878  0.54470867     0.16500
H113        H  0.05951171  0.08471762  0.95607124     0.14800
H114        H  0.09742209  0.04681218  0.95811579     0.14800
H115        H  0.42618834  0.44877741  0.46196296     0.14800
H116        H  0.46387651  0.41101777  0.46415047     0.14800
H117        H  0.49237848  0.01648977  0.98183232     0.28000
H118        H  0.03058798  0.48119953  0.48319947     0.28000
N119        N  0.48320134  0.47013793  0.25300658    -0.34700
N120        N  0.04305562  0.47040734  0.25242994    -0.55300
N121        N  0.04339583  0.03046071  0.25235460    -0.34700
N122        N  0.48276465  0.03041358  0.24850522    -0.55300
C123        C  0.48950184  0.44409302  0.24284088     0.28800
C124        C  0.45753168  0.47578370  0.24075246     0.28800
C125        C  0.06948766  0.02450514  0.24198939     0.28800
C126        C  0.03756548  0.05634038  0.24108502     0.28800
C127        C  0.03769684  0.44433758  0.26303977     0.37500
C128        C  0.06919063  0.47595838  0.26251737     0.37500
C129        C  0.45634668  0.02503201  0.25790994     0.37500
C130        C  0.48799481  0.05686009  0.25785951     0.37500
C131        C  0.46787311  0.43342690  0.22292214    -0.20000
C132        C  0.44784912  0.45330471  0.22155595    -0.20000
C133        C  0.08009042  0.04667877  0.22309480    -0.20000
C134        C  0.06008063  0.06660045  0.22244493    -0.20000
C135        C  0.06026190  0.43367257  0.28103682    -0.21100
C136        C  0.08011647  0.45359824  0.28068694    -0.21100
C137        C  0.44502432  0.04803386  0.27406402    -0.21100
C138        C  0.46489167  0.06800198  0.27408607    -0.21100
C139        C  0.01355339  0.42966552  0.25352713    -0.16400
C140        C  0.44223903  0.49996958  0.24897728    -0.16400
C141        C  0.01309562  0.07119748  0.24948236    -0.16400
C142        C  0.08370500  0.50003888  0.25234294    -0.16400
H143        H  0.46662191  0.41355675  0.21007484     0.16500
H144        H  0.42852857  0.45135306  0.20742916     0.16500
H145        H  0.09998057  0.04837171  0.21039522     0.16500
H146        H  0.06198080  0.08619822  0.20900756     0.16500
H147        H  0.06234865  0.41374745  0.29354013     0.14800
H148        H  0.10018276  0.45172273  0.29284980     0.14800
H149        H  0.42479037  0.05029230  0.28555451     0.14800
H150        H  0.46246426  0.08816140  0.28572066     0.14800
H151        H  0.49461771  0.48232651  0.27070368     0.28000
H152        H  0.03117882  0.01853348  0.26947025     0.28000
O153        O  0.49445124  0.19343872  0.50108535    -0.69900
O154        O  0.48904103  0.11561180  0.99652457    -0.70100
O155        O  0.48975318  0.15433595  0.04958545    -0.70000
O156        O  0.49339758  0.15618182  0.44662617    -0.70000
O157        O  0.03725812  0.15427384  0.44684264    -0.70000
O158        O  0.03535939  0.15369017  0.05020466    -0.70000
O159        O  0.03606975  0.11448723  0.49862506    -0.69900
O160        O  0.03677813  0.19289819  0.99826296    -0.70100
V161        V  0.49090165  0.15492249  0.99762720     1.35200
V162        V  0.03479185  0.15356738  0.99838725     1.35200
C163        C  0.01492302  0.20689791  0.99892170     0.79300
C164        C  0.01180271  0.10125073  0.99731153     0.79400
C165        C  0.01303499  0.15371316  0.06747543     0.79300
C166        C  0.01512982  0.15556333  0.42915749     0.79200
O167        O  0.49262384  0.19511669  0.24897591    -0.69900
O168        O  0.49125644  0.11650383  0.24814218    -0.70100
O169        O  0.49238306  0.15568358  0.30045568    -0.70000
O170        O  0.49117677  0.15603714  0.19675262    -0.70000
O171        O  0.03626691  0.15378535  0.19609408    -0.70000
O172        O  0.03721394  0.15620515  0.29991540    -0.70000
O173        O  0.03587986  0.11572792  0.24986870    -0.69900
O174        O  0.03750429  0.19429195  0.24662832    -0.70100
V175        V  0.49272226  0.15582169  0.24857235     1.35200
V176        V  0.03586458  0.15501849  0.24806196     1.35200
C177        C  0.01558537  0.20811490  0.24812841     0.79300
C178        C  0.01355188  0.10244880  0.24908857     0.79400
C179        C  0.01511209  0.15608661  0.31774412     0.79300
C180        C  0.01388739  0.15469976  0.17888096     0.79200
C181        C  0.01531373  0.15626396  0.38992922    -0.11400
C182        C  0.01535301  0.15641513  0.35697290    -0.13000
C183        C  0.01340624  0.15410530  0.13965297    -0.11400
C184        C  0.01295132  0.15375053  0.10670515    -0.13000
C185        C  0.35803269  0.49598712  0.39065146    -0.11400
C186        C  0.35815284  0.49604465  0.35768846    -0.13000
C187        C  0.35634336  0.49793704  0.14074550    -0.11400
C188        C  0.35555241  0.49829940  0.10791725    -0.13000
C189        C  0.01620460  0.26312447  0.25044451    -0.11400
C190        C  0.01612565  0.23810119  0.24913427    -0.13000
C191        C  0.01641889  0.26207730  0.50237668    -0.11400
C192        C  0.01553949  0.23692172  0.99973970    -0.13000
C193        C  0.01478990  0.34533591  0.39404369    -0.11400
C194        C  0.01502166  0.34556585  0.36111359    -0.13000
C195        C  0.01468344  0.34547161  0.14397701    -0.11400
C196        C  0.01457235  0.34495155  0.11106018    -0.13000
C197        C  0.25022503  0.49498443  0.24820072    -0.11400
C198        C  0.27527788  0.49467658  0.24858743    -0.13000
C199        C  0.25039594  0.99515010  0.49875123    -0.11400
C200        C  0.27347268  0.49587139  0.99862244    -0.13000
C201        C  0.16720393  0.49592423  0.35741186    -0.11400
C202        C  0.16664583  0.49598047  0.39032552    -0.13000
C203        C  0.16598324  0.49947494  0.14032365    -0.11400
C204        C  0.16561591  0.49935918  0.10738619    -0.13000
O205        O  0.20604849  0.47376784  0.49934378    -0.69900
O206        O  0.12615249  0.47651734  0.99801390    -0.70100
O207        O  0.16638410  0.47460583  0.94758652    -0.70000
O208        O  0.16669472  0.47536457  0.55111838    -0.70000
O209        O  0.16970849  0.01930577  0.55127530    -0.70000
O210        O  0.16548682  0.01940320  0.94733597    -0.70000
O211        O  0.12905199  0.02005287  0.50165923    -0.69900
O212        O  0.20500879  0.01882163  0.99874249    -0.70100
V213        V  0.16540129  0.47637526  0.99936249     1.35200
V214        V  0.16573890  0.01888907  0.99925722     1.35200
C215        C  0.21785340  0.99629818  0.99925041     0.79300
C216        C  0.11300505  0.49891238  0.99875419     0.79400
C217        C  0.16652346  0.49654639  0.92944079     0.79300
C218        C  0.16827785  0.49772701  0.56822828     0.79200
O219        O  0.20881767  0.01757538  0.74937287    -0.69900
O220        O  0.13029311  0.01969936  0.75076040    -0.70100
O221        O  0.16983661  0.01841709  0.80167726    -0.70000
O222        O  0.16915321  0.01906245  0.69801898    -0.70000
O223        O  0.16937700  0.47538546  0.69650810    -0.70000
O224        O  0.16789850  0.47397553  0.80020066    -0.70000
O225        O  0.12943259  0.47586340  0.74734318    -0.69900
O226        O  0.20799823  0.47374493  0.74924519    -0.70100
V227        V  0.16953295  0.01781714  0.74988770     1.35200
V228        V  0.16870780  0.47559444  0.74834566     1.35200
C229        C  0.22191024  0.49564246  0.74873085     0.79300
C230        C  0.11631954  0.49822605  0.74973357     0.79400
C231        C  0.16910200  0.49594482  0.81824203     0.79300
C232        C  0.16902468  0.49783815  0.67951428     0.79200
O233        O  0.49365451  0.30431971  0.50212336    -0.69900
O234        O  0.49052631  0.38356687  0.00532518    -0.70100
O235        O  0.49122114  0.34628055  0.95067573    -0.70000
O236        O  0.49255610  0.34306712  0.55469711    -0.70000
O237        O  0.03687810  0.34669145  0.55437903    -0.70000
O238        O  0.03511454  0.34499282  0.95022848    -0.70000
O239        O  0.03573860  0.38464544  0.50082886    -0.69900
O240        O  0.03661361  0.30595875  0.00225817    -0.70100
V241        V  0.49214326  0.34442847  0.00257572     1.35200
V242        V  0.03474428  0.34525856  0.00205759     1.35200
C243        C  0.01474812  0.29199668  0.00155613     0.79300
C244        C  0.01203035  0.39759228  0.00338570     0.79400
C245        C  0.01272398  0.34497994  0.93310350     0.79300
C246        C  0.01470321  0.34525316  0.57192285     0.79200
O247        O  0.49248610  0.30529110  0.75108164    -0.69900
O248        O  0.49268195  0.38382784  0.75439981    -0.70100
O249        O  0.49241441  0.34569845  0.70088931    -0.70000
O250        O  0.49242765  0.34362491  0.80442709    -0.70000
O251        O  0.03558298  0.34434069  0.80452600    -0.70000
O252        O  0.03630857  0.34447027  0.70077313    -0.70000
O253        O  0.03617534  0.38359635  0.75243773    -0.69900
O254        O  0.03570537  0.30508959  0.75233977    -0.70100
V255        V  0.49336867  0.34459128  0.75268971     1.35200
V256        V  0.03507920  0.34435795  0.75258042     1.35200
C257        C  0.01347500  0.29181153  0.75065237     0.79300
C258        C  0.01419089  0.39737114  0.75354395     0.79400
C259        C  0.01419849  0.34556326  0.68306102     0.79300
C260        C  0.01320947  0.34380205  0.82176482     0.79200
O261        O  0.31728410  0.47452290  0.99823488    -0.69900
O262        O  0.39748692  0.47590461  0.50135623    -0.70100
O263        O  0.35739006  0.47501997  0.55158532    -0.70000
O264        O  0.35804314  0.47498341  0.94821699    -0.70000
O265        O  0.35456463  0.01858563  0.94822621    -0.70000
O266        O  0.35795129  0.01946807  0.55232509    -0.70000
O267        O  0.39411261  0.01967702  0.99929851    -0.69900
O268        O  0.31826712  0.01850095  0.50085661    -0.70100
V269        V  0.35825934  0.47556495  0.49972972     1.35200
V270        V  0.35758462  0.01869443  0.50042370     1.35200
C271        C  0.30505384  0.49551745  0.49884863     0.79300
C272        C  0.41068218  0.49825258  0.49968840     0.79400
C273        C  0.35787809  0.49736006  0.56882679     0.79300
C274        C  0.35726288  0.49704919  0.93032921     0.79200
O275        O  0.31929375  0.01749757  0.75139067    -0.69900
O276        O  0.39779100  0.01999296  0.74879760    -0.70100
O277        O  0.35751440  0.01879178  0.69844250    -0.70000
O278        O  0.35934826  0.01872864  0.80214004    -0.70000
O279        O  0.35935076  0.47494998  0.80157105    -0.70000
O280        O  0.36104503  0.47514664  0.69783522    -0.70000
O281        O  0.39943071  0.47628126  0.75125525    -0.69900
O282        O  0.32093136  0.47404252  0.74862881    -0.70100
V283        V  0.35854002  0.01789677  0.75023844     1.35200
V284        V  0.36018739  0.47596719  0.74977116     1.35200
C285        C  0.30696150  0.49588984  0.74938646     0.79300
C286        C  0.41253938  0.49869424  0.75024342     0.79400
C287        C  0.35973135  0.49735901  0.68029598     0.79300
C288        C  0.35932207  0.49714329  0.81913103     0.79200
N289        N  0.48312142  0.02914301  0.49754213    -0.34700
N290        N  0.04322445  0.02928195  0.50228018    -0.55300
N291        N  0.04101863  0.46956058  0.00061299    -0.34700
N292        N  0.48096743  0.46934300  0.00427512    -0.55300
C293        C  0.48913430  0.05551400  0.50643965     0.28800
C294        C  0.45700548  0.02380842  0.50837782     0.28800
C295        C  0.06714447  0.47558822  0.01048253     0.28800
C296        C  0.03537658  0.44379641  0.01239733     0.28800
C297        C  0.03772843  0.05511994  0.49056711     0.37500
C298        C  0.06938251  0.02344929  0.49218365     0.37500
C299        C  0.45477376  0.47445152  0.99372048     0.37500
C300        C  0.48654566  0.44292310  0.99515242     0.37500
C301        C  0.46665932  0.06679972  0.52407159    -0.20000
C302        C  0.44653383  0.04697600  0.52519178    -0.20000
C303        C  0.07782610  0.45368841  0.02994868    -0.20000
C304        C  0.05790848  0.43372565  0.03108304    -0.20000
C305        C  0.06033127  0.06535457  0.47219061    -0.21100
C306        C  0.08023619  0.04547300  0.47327525    -0.21900
C307        C  0.44405448  0.45131830  0.97710514    -0.21100
C308        C  0.46397300  0.43151846  0.97808994    -0.21100
C309        C  0.01325916  0.06997677  0.49865732    -0.16400
C310        C  0.44014829  0.49919357  0.00100955    -0.16400
C311        C  0.01119478  0.42875256  0.00382936    -0.16400
C312        C  0.08186626  0.49946539  0.99955707    -0.16400
H313        H  0.46479657  0.08703490  0.53567222     0.16500
H314        H  0.42665795  0.04945812  0.53768282     0.16500
H315        H  0.09779606  0.45209804  0.04245025     0.16500
H316        H  0.05991112  0.41413838  0.04454285     0.16500
H317        H  0.06232411  0.08485399  0.45853121     0.14800
H318        H  0.10015709  0.04705043  0.46065056     0.14800
H319        H  0.42428077  0.44887765  0.96434278     0.14800
H320        H  0.46203664  0.41135180  0.96631483     0.14800
H321        H  0.49524319  0.01629107  0.48153844     0.28000
H322        H  0.02882883  0.48112251  0.98307582     0.28000
N323        N  0.48450426  0.46928530  0.75387975    -0.34700
N324        N  0.04434837  0.46909001  0.75144398    -0.55300
N325        N  0.04456054  0.02921688  0.75246112    -0.34700
N326        N  0.48405011  0.02942722  0.74904473    -0.55300
C327        C  0.49045011  0.44312315  0.74397062     0.28800
C328        C  0.45862934  0.47489955  0.74245976     0.28800
C329        C  0.07054776  0.02304977  0.74198169     0.28800
C330        C  0.03891978  0.05511401  0.74117867     0.28800
C331        C  0.03891757  0.44302996  0.76223540     0.37500
C332        C  0.07063030  0.47456561  0.76108181     0.37500
C333        C  0.45757257  0.02423367  0.75834922     0.37500
C334        C  0.48936366  0.05587968  0.75821082     0.37500
C335        C  0.46832360  0.43233591  0.72515890    -0.20000
C336        C  0.44839464  0.45224041  0.72420321    -0.20000
C337        C  0.08123837  0.04513213  0.72291399    -0.20000
C338        C  0.06142520  0.06525004  0.72246637    -0.20000
C339        C  0.06164017  0.43227526  0.77975969    -0.21100
C340        C  0.08159089  0.45212114  0.77904380    -0.21100
C341        C  0.44630342  0.04737080  0.77420734    -0.21100
C342        C  0.46626846  0.06721628  0.77419374    -0.21100
C343        C  0.01440600  0.42852278  0.75365352    -0.16400
C344        C  0.44372562  0.49931193  0.75047377    -0.16400
C345        C  0.01456258  0.07002983  0.74956291    -0.16400
C346        C  0.08516560  0.49878495  0.75117782    -0.16400
H347        H  0.46664939  0.41241833  0.71255967     0.16500
H348        H  0.42883256  0.45017825  0.71073500     0.16500
H349        H  0.10106089  0.04668462  0.71000576     0.16500
H350        H  0.06341720  0.08489578  0.70917057     0.16500
H351        H  0.06374406  0.41240200  0.79239022     0.14800
H352        H  0.10169949  0.45017025  0.79104815     0.14800
H353        H  0.42606605  0.04981771  0.78559685     0.14800
H354        H  0.46390393  0.08745291  0.78561443     0.14800
H355        H  0.49636988  0.48165473  0.77082695     0.28000
H356        H  0.03228940  0.01743452  0.76971262     0.28000
O357        O  0.49109368  0.19424861  0.99846553    -0.69900
O358        O  0.49282990  0.11505341  0.49581645    -0.70100
O359        O  0.49401775  0.15230019  0.55027941    -0.70000
O360        O  0.49029015  0.15559590  0.94576937    -0.70000
O361        O  0.03613169  0.15337008  0.94652356    -0.70000
O362        O  0.03696808  0.15327455  0.55046558    -0.70000
O363        O  0.03431017  0.11423062  0.99879590    -0.69900
O364        O  0.03781727  0.19312200  0.49944549    -0.70100
V365        V  0.49454250  0.15423203  0.49844070     1.35200
V366        V  0.03615925  0.15379851  0.49873840     1.35200
C367        C  0.01587348  0.20695195  0.50049487     0.79300
C368        C  0.01372273  0.10122441  0.49779450     0.79400
C369        C  0.01471150  0.15286083  0.56784050     0.79300
C370        C  0.01407164  0.15463529  0.92869414     0.79200
O371        O  0.49287331  0.19354736  0.74703762    -0.69900
O372        O  0.49262190  0.11508593  0.74697197    -0.70100
O373        O  0.49171276  0.15438257  0.79895664    -0.70000
O374        O  0.49376473  0.15406176  0.69530531    -0.70000
O375        O  0.03710644  0.15284316  0.69654411    -0.70000
O376        O  0.03666138  0.15542265  0.80013242    -0.70000
O377        O  0.03690291  0.11484257  0.75025497    -0.69900
O378        O  0.03653170  0.19352577  0.74678851    -0.70100
V379        V  0.49361814  0.15428830  0.74710987     1.35200
V380        V  0.03596373  0.15417733  0.74836286     1.35200
C381        C  0.01422008  0.20677724  0.74777301     0.79300
C382        C  0.01480543  0.10118862  0.74889557     0.79400
C383        C  0.01438889  0.15454968  0.81748036     0.79300
C384        C  0.01494332  0.15325741  0.67887460     0.79200
C385        C  0.01432906  0.15475076  0.88953725    -0.11400
C386        C  0.01430964  0.15472282  0.85662875    -0.13000
C387        C  0.01500053  0.15254973  0.63979180    -0.11400
C388        C  0.01475473  0.15235443  0.60692300    -0.13000
C389        C  0.35819189  0.49682736  0.89119153    -0.11400
C390        C  0.35887275  0.49699874  0.85829154    -0.13000
C391        C  0.35926185  0.49742375  0.64103897    -0.11400
C392        C  0.35855311  0.49753796  0.60807954    -0.13000
C393        C  0.01348810  0.26181933  0.74930280    -0.11400
C394        C  0.01387587  0.23678249  0.74832255    -0.13000
C395        C  0.01542176  0.26197882  0.00060448    -0.11400
C396        C  0.01637582  0.23700028  0.50168649    -0.13000
C397        C  0.01248550  0.34459754  0.89389823    -0.11400
C398        C  0.01281361  0.34407377  0.86096736    -0.13000
C399        C  0.01445331  0.34591047  0.64393628    -0.11400
C400        C  0.01466332  0.34574771  0.61104500    -0.13000
C401        C  0.25191507  0.49508502  0.74888568    -0.11400
C402        C  0.27696394  0.49519454  0.74911886    -0.13000
C403        C  0.24778165  0.99555856  0.99915068    -0.11400
C404        C  0.27505766  0.49488751  0.49823912    -0.13000
C405        C  0.16840071  0.49557954  0.85739833    -0.11400
C406        C  0.16747209  0.49588780  0.89029307    -0.13000
C407        C  0.16890073  0.49825440  0.64032904    -0.11400
C408        C  0.16869506  0.49812379  0.60740324    -0.13000
O409        O  0.20395128  0.97442785  0.99990091    -0.69900
O410        O  0.12793840  0.97588794  0.49881048    -0.70100
O411        O  0.16779997  0.97448231  0.44786045    -0.70000
O412        O  0.16465589  0.97571625  0.05162557    -0.70000
O413        O  0.16681451  0.52071323  0.05006425    -0.70000
O414        O  0.16651728  0.51875403  0.44665367    -0.70000
O415        O  0.12709328  0.52072729  0.99907348    -0.69900
O416        O  0.20719854  0.51811395  0.49661663    -0.70100
V417        V  0.16722400  0.97563504  0.49968643     1.35200
V418        V  0.16794173  0.51835390  0.49852777     1.35200
C419        C  0.22002312  0.49559263  0.49782889     0.79300
C420        C  0.11488207  0.99831066  0.50064992     0.79400
C421        C  0.16727761  0.99662493  0.43016390     0.79300
C422        C  0.16560213  0.99805374  0.06885911     0.79200
O423        O  0.20752553  0.51855326  0.24796477    -0.69900
O424        O  0.12900664  0.52104773  0.25170620    -0.70100
O425        O  0.16938630  0.51892691  0.30141206    -0.70000
O426        O  0.16692213  0.52083497  0.19773492    -0.70000
O427        O  0.16783875  0.97559296  0.19715387    -0.70000
O428        O  0.16637353  0.97453282  0.30087096    -0.70000
O429        O  0.12804093  0.97683789  0.24782066    -0.69900
O430        O  0.20640755  0.97346481  0.24994687    -0.70100
V431        V  0.16822311  0.51898721  0.24960210     1.35200
V432        V  0.16720798  0.97596740  0.24898200     1.35200
C433        C  0.22064833  0.99512630  0.24933892     0.79300
C434        C  0.11519785  0.99935052  0.24996941     0.79400
C435        C  0.16798725  0.99652736  0.31881531     0.79300
C436        C  0.16763914  0.99800641  0.18006508     0.79200
O437        O  0.49215363  0.80506773  0.00016674    -0.69900
O438        O  0.49190449  0.88301134  0.50434982    -0.70100
O439        O  0.49306279  0.84507178  0.45057666    -0.70000
O440        O  0.49104689  0.84248694  0.05434045    -0.70000
O441        O  0.03558754  0.84565267  0.05444619    -0.70000
O442        O  0.03782424  0.84494183  0.45091723    -0.70000
O443        O  0.03451977  0.88484985  0.00246669    -0.69900
O444        O  0.03798752  0.80547045  0.50267386    -0.70100
V445        V  0.49365723  0.84384064  0.50251711     1.35200
V446        V  0.03631735  0.84475949  0.50276990     1.35200
C447        C  0.01605788  0.79164334  0.50140457     0.79300
C448        C  0.01382643  0.89717345  0.50380754     0.79400
C449        C  0.01578289  0.84525459  0.43297725     0.79300
C450        C  0.01328575  0.84397057  0.07169063     0.79200
O451        O  0.49300054  0.80586105  0.25169420    -0.69900
O452        O  0.49168901  0.88441468  0.25418770    -0.70100
O453        O  0.49152103  0.84584272  0.20108008    -0.70000
O454        O  0.49298749  0.84438828  0.30479567    -0.70000
O455        O  0.03744751  0.84661655  0.30332913    -0.70000
O456        O  0.03564818  0.84499318  0.19968699    -0.70000
O457        O  0.03601565  0.88501497  0.25015256    -0.69900
O458        O  0.03687543  0.80653889  0.25223257    -0.70100
V459        V  0.49314070  0.84514134  0.25292417     1.35200
V460        V  0.03562875  0.84579396  0.25145435     1.35200
C461        C  0.01480130  0.79294488  0.25156894     0.79300
C462        C  0.01385271  0.89847541  0.25196321     0.79400
C463        C  0.01315224  0.84532854  0.18283956     0.79300
C464        C  0.01554240  0.84583525  0.32157085     0.79200
O465        O  0.31938705  0.97414517  0.49844540    -0.69900
O466        O  0.39507079  0.97555198  0.00229606    -0.70100
O467        O  0.35473495  0.97443585  0.05224274    -0.70000
O468        O  0.36010422  0.97527186  0.44858020    -0.70000
O469        O  0.35651399  0.51861188  0.44709675    -0.70000
O470        O  0.35558426  0.52028139  0.05109272    -0.70000
O471        O  0.39656337  0.52001671  0.49790226    -0.69900
O472        O  0.31633398  0.51891955  0.99925469    -0.70100
V473        V  0.35581813  0.97528391  0.00045795     1.35200
V474        V  0.35561469  0.51896135  0.99926292     1.35200
C475        C  0.30272935  0.99552807  0.99954749     0.79300
C476        C  0.40823174  0.99794385  0.00083653     0.79400
C477        C  0.35515914  0.99667138  0.06968777     0.79300
C478        C  0.35877688  0.99747032  0.43105046     0.79200
O479        O  0.31803249  0.51788387  0.25026481    -0.69900
O480        O  0.39652330  0.52041544  0.24794838    -0.70100
O481        O  0.35632491  0.51960505  0.19757793    -0.70000
O482        O  0.35805764  0.51873439  0.30120657    -0.70000
O483        O  0.35776384  0.97494416  0.30248130    -0.70000
O484        O  0.36031936  0.97447179  0.19874509    -0.70000
O485        O  0.39823913  0.97655360  0.25271809    -0.69900
O486        O  0.31980206  0.97312225  0.24884713    -0.70100
V487        V  0.35728643  0.51828057  0.24929727     1.35200
V488        V  0.35902073  0.97559926  0.25065437     1.35200
C489        C  0.30557676  0.99478527  0.25040859     0.79300
C490        C  0.41102460  0.99909889  0.25020474     0.79400
C491        C  0.35768525  0.99647660  0.18100079     0.79300
C492        C  0.35846213  0.99726654  0.31975343     0.79200
N493        N  0.48075342  0.52960035  0.99759136    -0.34700
N494        N  0.04135146  0.52964776  0.00026378    -0.55300
N495        N  0.04288146  0.96914936  0.50225331    -0.34700
N496        N  0.48279540  0.96891014  0.50453249    -0.55300
C497        C  0.48651366  0.55601406  0.00650844     0.28800
C498        C  0.45469141  0.52403416  0.00834583     0.28800
C499        C  0.06899641  0.97508262  0.51226077     0.28800
C500        C  0.03722301  0.94328705  0.51363736     0.28800
C501        C  0.03574133  0.55541736  0.98843832     0.37500
C502        C  0.06738976  0.52375384  0.98973518     0.37500
C503        C  0.45675144  0.97430356  0.49362351     0.37500
C504        C  0.48826134  0.94254356  0.49505409     0.37500
C505        C  0.46391989  0.56712469  0.02405043    -0.20000
C506        C  0.44398683  0.54712006  0.02513771    -0.20000
C507        C  0.07966994  0.95302420  0.53139328    -0.20000
C508        C  0.05974037  0.93306326  0.53222964    -0.20000
C509        C  0.05811973  0.56553792  0.96945828    -0.21100
C510        C  0.07803502  0.54563679  0.97032639    -0.21900
C511        C  0.44601877  0.95142535  0.47642122    -0.21100
C512        C  0.46579121  0.93146592  0.47738692    -0.21100
C513        C  0.01143027  0.57032649  0.99711378    -0.16400
C514        C  0.44225740  0.99906735  0.50111602    -0.16400
C515        C  0.01306444  0.92832884  0.50467499    -0.16400
C516        C  0.08375382  0.99901555  0.50170437    -0.16400
H517        H  0.46185245  0.58736246  0.03557947     0.16500
H518        H  0.42408131  0.54943617  0.03760151     0.16500
H519        H  0.09966205  0.95133637  0.54381980     0.16500
H520        H  0.06174885  0.91338034  0.54543049     0.16500
H521        H  0.05994348  0.58499092  0.95562853     0.14800
H522        H  0.09783899  0.54711287  0.95734692     0.14800
H523        H  0.42632810  0.94929989  0.46332165     0.14800
H524        H  0.46384655  0.91141919  0.46525231     0.14800
H525        H  0.49300932  0.51684607  0.98155791     0.28000
H526        H  0.03073066  0.98084324  0.48484854     0.28000
N527        N  0.48307024  0.97014036  0.25269451    -0.34700
N528        N  0.04341878  0.97028938  0.25036601    -0.55300
N529        N  0.04312428  0.53048184  0.25370001    -0.34700
N530        N  0.48284375  0.53035871  0.24902642    -0.55300
C531        C  0.48893787  0.94396658  0.24273227     0.28800
C532        C  0.45712220  0.97575369  0.24163465     0.28800
C533        C  0.06909710  0.52437305  0.24304215     0.28800
C534        C  0.03727026  0.55620633  0.24189490     0.28800
C535        C  0.03802698  0.94419058  0.26093944     0.37500
C536        C  0.06951712  0.97584958  0.26069389     0.37500
C537        C  0.45622909  0.52497034  0.25743233     0.37500
C538        C  0.48790574  0.55682848  0.25851354     0.37500
C539        C  0.46667467  0.93313585  0.22427884    -0.20000
C540        C  0.44675592  0.95307442  0.22350903    -0.20000
C541        C  0.07957747  0.54627277  0.22347860    -0.20000
C542        C  0.05962657  0.56621252  0.22271187    -0.20000
C543        C  0.06055162  0.93349444  0.27895117    -0.21100
C544        C  0.08036219  0.95343302  0.27884115    -0.21100
C545        C  0.44462655  0.54805220  0.27309954    -0.21100
C546        C  0.46448913  0.56801430  0.27378950    -0.21100
C547        C  0.01372120  0.92959330  0.25192117    -0.16400
C548        C  0.44219012  0.00009087  0.24999347    -0.16400
C549        C  0.01286875  0.57113207  0.25010807    -0.16400
C550        C  0.08407802  0.00007515  0.25110979    -0.16400
H551        H  0.46489627  0.91312207  0.21196528     0.16500
H552        H  0.42704737  0.95099926  0.21041273     0.16500
H553        H  0.09932182  0.54774430  0.21033639     0.16500
H554        H  0.06141799  0.58560775  0.20873923     0.16500
H555        H  0.06258064  0.91360923  0.29157374     0.14800
H556        H  0.10028819  0.95155805  0.29139472     0.14800
H557        H  0.42422257  0.55045436  0.28393605     0.14800
H558        H  0.46180172  0.58822481  0.28515571     0.14800
H559        H  0.49502152  0.98248758  0.26955996     0.28000
H560        H  0.03100610  0.51878615  0.27123203     0.28000
O561        O  0.49377434  0.69369586  0.50085646    -0.69900
O562        O  0.48995207  0.61580322  0.99612429    -0.70100
O563        O  0.49124801  0.65339329  0.05035478    -0.70000
O564        O  0.49284717  0.65619200  0.44682639    -0.70000
O565        O  0.03690174  0.65382171  0.44574528    -0.70000
O566        O  0.03606373  0.65350657  0.04910659    -0.70000
O567        O  0.03608085  0.61430583  0.49774255    -0.69900
O568        O  0.03678547  0.69319950  0.99771271    -0.70100
V569        V  0.49181113  0.65505191  0.99843386     1.35200
V570        V  0.03479943  0.65393619  0.99725633     1.35200
C571        C  0.01496143  0.70719942  0.99840625     0.79300
C572        C  0.01206033  0.60155539  0.99683129     0.79400
C573        C  0.01394733  0.65372637  0.06688652     0.79300
C574        C  0.01463246  0.65548380  0.42844287     0.79200
O575        O  0.49335935  0.69504936  0.24846523    -0.69900
O576        O  0.49171035  0.61655681  0.24911600    -0.70100
O577        O  0.49276546  0.65630809  0.30069517    -0.70000
O578        O  0.49228575  0.65534473  0.19689579    -0.70000
O579        O  0.03656176  0.65401941  0.19590399    -0.70000
O580        O  0.03655292  0.65584338  0.29963859    -0.70000
O581        O  0.03570656  0.61565238  0.24932888    -0.69900
O582        O  0.03707148  0.69428038  0.24684524    -0.70100
V583        V  0.49340237  0.65580391  0.24879262     1.35200
V584        V  0.03561748  0.65496425  0.24783175     1.35200
C585        C  0.01503437  0.70798043  0.24725359     0.79300
C586        C  0.01337125  0.60234970  0.24917042     0.79400
C587        C  0.01432525  0.65623032  0.31713312     0.79300
C588        C  0.01435092  0.65422219  0.17830206     0.79200
C589        C  0.01447266  0.65629430  0.38925613    -0.11400
C590        C  0.01436154  0.65654634  0.35632393    -0.13000
C591        C  0.01435005  0.65360178  0.13906796    -0.11400
C592        C  0.01419707  0.65343502  0.10611251    -0.13000
C593        C  0.35888926  0.99749138  0.39186474    -0.11400
C594        C  0.35873764  0.99745800  0.35893774    -0.13000
C595        C  0.35677619  0.99633034  0.14180741    -0.11400
C596        C  0.35581593  0.99658661  0.10889027    -0.13000
C597        C  0.01511102  0.76297634  0.25002488    -0.11400
C598        C  0.01529354  0.73796372  0.24842317    -0.13000
C599        C  0.01655920  0.76166740  0.50097599    -0.11400
C600        C  0.01574623  0.73719804  0.99903233    -0.13000
C601        C  0.01617994  0.84576097  0.39375253    -0.11400
C602        C  0.01615591  0.84594050  0.36079744    -0.13000
C603        C  0.01268173  0.84474797  0.14371612    -0.11400
C604        C  0.01292639  0.84418485  0.11082679    -0.13000
C605        C  0.25060009  0.99404208  0.24961682    -0.11400
C606        C  0.27562466  0.99386195  0.25001245    -0.13000
C607        C  0.25001350  0.49490629  0.49782679    -0.11400
C608        C  0.27278849  0.99517646  0.99922544    -0.13000
C609        C  0.16766248  0.99623793  0.35801718    -0.11400
C610        C  0.16736139  0.99639644  0.39095475    -0.13000
C611        C  0.16696912  0.99835059  0.14091093    -0.11400
C612        C  0.16623709  0.99830419  0.10801063    -0.13000
O613        O  0.20650807  0.97381973  0.50047776    -0.69900
O614        O  0.12549002  0.97637496  0.99949869    -0.70100
O615        O  0.16493934  0.97493901  0.94796017    -0.70000
O616        O  0.16658837  0.97494816  0.55155649    -0.70000
O617        O  0.16942655  0.51974478  0.55030447    -0.70000
O618        O  0.16602650  0.51906280  0.94631829    -0.70000
O619        O  0.12873541  0.52024704  0.50069816    -0.69900
O620        O  0.20561618  0.51895532  0.99759950    -0.70100
V621        V  0.16474474  0.97623934  0.99975393     1.35200
V622        V  0.16635454  0.51900670  0.99823924     1.35200
C623        C  0.21850906  0.49648834  0.99906217     0.79300
C624        C  0.11238707  0.99879188  0.00002920     0.79400
C625        C  0.16548787  0.99701765  0.93013844     0.79300
C626        C  0.16824202  0.99717879  0.56893942     0.79200
O627        O  0.20900407  0.51813182  0.74818016    -0.69900
O628        O  0.13045739  0.51998453  0.75114174    -0.70100
O629        O  0.17065056  0.51835148  0.80125824    -0.70000
O630        O  0.16876512  0.51984046  0.69756866    -0.70000
O631        O  0.16841934  0.97460293  0.69749127    -0.70000
O632        O  0.16814134  0.97398108  0.80127195    -0.70000
O633        O  0.12915104  0.97550597  0.74913375    -0.69900
O634        O  0.20762502  0.97318207  0.74945199    -0.70100
V635        V  0.16972082  0.51821700  0.74944791     1.35200
V636        V  0.16837934  0.97517699  0.74936093     1.35200
C637        C  0.22161206  0.99501778  0.74936300     0.79300
C638        C  0.11611630  0.99794684  0.75034112     0.79400
C639        C  0.16872326  0.99613473  0.81898314     0.79300
C640        C  0.16870600  0.99695269  0.68023369     0.79200
O641        O  0.49371479  0.80457445  0.50105453    -0.69900
O642        O  0.49009720  0.88342020  0.00527997    -0.70100
O643        O  0.49109490  0.84611830  0.95070805    -0.70000
O644        O  0.49250984  0.84274353  0.55432050    -0.70000
O645        O  0.03662105  0.84471936  0.55465106    -0.70000
O646        O  0.03622524  0.84563601  0.95068809    -0.70000
O647        O  0.03624397  0.88406298  0.50281253    -0.69900
O648        O  0.03707834  0.80625204  0.00247883    -0.70100
V649        V  0.49195799  0.84429094  0.00258215     1.35200
V650        V  0.03501745  0.84555360  0.00254820     1.35200
C651        C  0.01527915  0.79223139  0.00063058     0.79300
C652        C  0.01195439  0.89766250  0.00414637     0.79400
C653        C  0.01408508  0.84608073  0.93296939     0.79300
C654        C  0.01420456  0.84371970  0.57170884     0.79200
O655        O  0.49173215  0.80575821  0.75110689    -0.69900
O656        O  0.49243570  0.88425628  0.75410467    -0.70100
O657        O  0.49202932  0.84602038  0.70070403    -0.70000
O658        O  0.49191668  0.84424582  0.80434934    -0.70000
O659        O  0.03640190  0.84529435  0.80382413    -0.70000
O660        O  0.03582887  0.84427904  0.70012264    -0.70000
O661        O  0.03604178  0.88397150  0.75112424    -0.69900
O662        O  0.03604535  0.80544724  0.75227341    -0.70100
V663        V  0.49289341  0.84504456  0.75255076     1.35200
V664        V  0.03521222  0.84473726  0.75191609     1.35200
C665        C  0.01384343  0.79206178  0.75130741     0.79300
C666        C  0.01398083  0.89763004  0.75236388     0.79400
C667        C  0.01351505  0.84475200  0.68283955     0.79300
C668        C  0.01426386  0.84505684  0.82158818     0.79200
O669        O  0.31653815  0.97356547  0.99888202    -0.69900
O670        O  0.39780391  0.97640881  0.50268550    -0.70100
O671        O  0.35722219  0.97500429  0.55216785    -0.70000
O672        O  0.35709398  0.97419317  0.94860110    -0.70000
O673        O  0.35569785  0.51938725  0.94744450    -0.70000
O674        O  0.35797848  0.51947240  0.55095763    -0.70000
O675        O  0.39491594  0.52066475  0.99908383    -0.69900
O676        O  0.31792693  0.51802482  0.49981677    -0.70100
V677        V  0.35861448  0.97607189  0.50042754     1.35200
V678        V  0.35723688  0.51818074  0.49900427     1.35200
C679        C  0.30542491  0.99598702  0.49938873     0.79300
C680        C  0.41102780  0.99874493  0.50130614     0.79400
C681        C  0.35756233  0.99717784  0.56975207     0.79300
C682        C  0.35615180  0.99632890  0.93088956     0.79200
O683        O  0.31980002  0.51841492  0.75034277    -0.69900
O684        O  0.39836656  0.52043299  0.74895377    -0.70100
O685        O  0.35857983  0.51953752  0.69786642    -0.70000
O686        O  0.35952230  0.51941699  0.80165856    -0.70000
O687        O  0.35864555  0.97426810  0.80206561    -0.70000
O688        O  0.36106943  0.97446466  0.69840833    -0.70000
O689        O  0.39919786  0.97588593  0.75213496    -0.69900
O690        O  0.32064571  0.97315818  0.74860417    -0.70100
V691        V  0.35909631  0.51859375  0.74974225     1.35200
V692        V  0.35989928  0.97528682  0.75027054     1.35200
C693        C  0.30657692  0.99493770  0.74985149     0.79300
C694        C  0.41215007  0.99839667  0.75051574     0.79400
C695        C  0.35910814  0.99663512  0.68091769     0.79300
C696        C  0.35876233  0.99646635  0.81962690     0.79200
N697        N  0.48265349  0.52901974  0.49703673    -0.34700
N698        N  0.04291841  0.52942621  0.50098873    -0.55300
N699        N  0.04051092  0.96953124  0.00164095    -0.34700
N700        N  0.48027188  0.96902647  0.00450914    -0.55300
C701        C  0.48843593  0.55536167  0.50647083     0.28800
C702        C  0.45649635  0.52342551  0.50752378     0.28800
C703        C  0.06646918  0.97570281  0.01203823     0.28800
C704        C  0.03472262  0.94394994  0.01388340     0.28800
C705        C  0.03744111  0.55515060  0.48895749     0.37500
C706        C  0.06911148  0.52360991  0.49112334     0.37500
C707        C  0.45421775  0.97404052  0.99337173     0.37500
C708        C  0.48609615  0.94271732  0.99522966     0.37500
C709        C  0.46582046  0.56632557  0.52410459    -0.20000
C710        C  0.44581984  0.54634573  0.52471401    -0.20000
C711        C  0.07688666  0.95412141  0.03236217    -0.20000
C712        C  0.05694281  0.93415942  0.03348578    -0.20000
C713        C  0.06005863  0.56533559  0.47057367    -0.21100
C714        C  0.07999648  0.54550819  0.47198924    -0.21900
C715        C  0.44381779  0.95099882  0.97621156    -0.21100
C716        C  0.46384645  0.93130851  0.97740332    -0.21100
C717        C  0.01303498  0.57001170  0.49701622    -0.16400
C718        C  0.43941842  0.99860480  0.00069223    -0.16400
C719        C  0.01082444  0.92873776  0.00466599    -0.16400
C720        C  0.08128215  0.99939148  0.00075864    -0.16400
H721        H  0.46379761  0.58645024  0.53600582     0.16500
H722        H  0.42586790  0.54855954  0.53708779     0.16500
H723        H  0.09672695  0.95274571  0.04528340     0.16500
H724        H  0.05873142  0.91470418  0.04734894     0.16500
H725        H  0.06203068  0.58478093  0.45676216     0.14800
H726        H  0.09994887  0.54703504  0.45944512     0.14800
H727        H  0.42417820  0.94859842  0.96305103     0.14800
H728        H  0.46220805  0.91120810  0.96534097     0.14800
H729        H  0.49490956  0.51645402  0.48095609     0.28000
H730        H  0.02862068  0.98078529  0.98337243     0.28000
N731        N  0.48432156  0.96946873  0.75387657    -0.34700
N732        N  0.04412976  0.96915763  0.75102492    -0.55300
N733        N  0.04455024  0.52933767  0.75289768    -0.34700
N734        N  0.48429545  0.52946333  0.74828521    -0.55300
C735        C  0.49044723  0.94344050  0.74359019     0.28800
C736        C  0.45843661  0.97502968  0.74243098     0.28800
C737        C  0.07056987  0.52329706  0.74228734     0.28800
C738        C  0.03878041  0.55529370  0.74180449     0.28800
C739        C  0.03842770  0.94319880  0.76188403     0.37500
C740        C  0.07025802  0.97456590  0.76137475     0.37500
C741        C  0.45802800  0.52411775  0.75836935     0.37500
C742        C  0.48967621  0.55583302  0.75777389     0.37500
C743        C  0.46844189  0.93272240  0.72442730    -0.20000
C744        C  0.44837365  0.95249833  0.72375157    -0.20000
C745        C  0.08116341  0.54553274  0.72346878    -0.20000
C746        C  0.06126242  0.56556397  0.72315914    -0.20000
C747        C  0.06077931  0.93244310  0.78023676    -0.21100
C748        C  0.08082767  0.95220031  0.77992532    -0.21100
C749        C  0.44699566  0.54702560  0.77508821    -0.21100
C750        C  0.46688681  0.56693209  0.77477994    -0.21100
C751        C  0.01409365  0.92874138  0.75250105    -0.16400
C752        C  0.44337158  0.99930635  0.75059725    -0.16400
C753        C  0.01430555  0.57014589  0.75013581    -0.16400
C754        C  0.08500610  0.99861371  0.75141012    -0.16400
H755        H  0.46692747  0.91290227  0.71151598     0.16500
H756        H  0.42882180  0.95047361  0.71023417     0.16500
H757        H  0.10097915  0.54721986  0.71056897     0.16500
H758        H  0.06319429  0.58523437  0.70991992     0.16500
H759        H  0.06256303  0.91259958  0.79305125     0.14800
H760        H  0.10073548  0.95023225  0.79250724     0.14800
H761        H  0.42697548  0.54923330  0.78723759     0.14800
H762        H  0.46472945  0.58703223  0.78670312     0.14800
H763        H  0.49607627  0.98173739  0.77114636     0.28000
H764        H  0.03235105  0.51740058  0.76998214     0.28000
O765        O  0.49202630  0.69433112  0.00054986    -0.69900
O766        O  0.49191038  0.61518111  0.49650928    -0.70100
O767        O  0.49297143  0.65282179  0.55050819    -0.70000
O768        O  0.49057753  0.65670329  0.94661353    -0.70000
O769        O  0.03531373  0.65430115  0.94533014    -0.70000
O770        O  0.03757416  0.65328302  0.54938034    -0.70000
O771        O  0.03449390  0.61465744  0.99707686    -0.69900
O772        O  0.03799264  0.69285280  0.49794755    -0.70100
V773        V  0.49373471  0.65444509  0.49867045     1.35200
V774        V  0.03627942  0.65357471  0.49763454     1.35200
C775        C  0.01607192  0.70666947  0.49961893     0.79300
C776        C  0.01367480  0.60116754  0.49666375     0.79400
C777        C  0.01548450  0.65262358  0.56713049     0.79300
C778        C  0.01295497  0.65525850  0.92810826     0.79200
O779        O  0.49172789  0.69358760  0.74755916    -0.69900
O780        O  0.49230092  0.61502196  0.74668998    -0.70100
O781        O  0.49091978  0.65414015  0.79914303    -0.70000
O782        O  0.49289457  0.65432660  0.69553125    -0.70000
O783        O  0.03751980  0.65310391  0.69654098    -0.70000
O784        O  0.03553283  0.65550817  0.80015181    -0.70000
O785        O  0.03646201  0.61502633  0.75025734    -0.69900
O786        O  0.03639419  0.69366135  0.74705974    -0.70100
V787        V  0.49282971  0.65428145  0.74728072     1.35200
V788        V  0.03562239  0.65433671  0.74838780     1.35200
C789        C  0.01414759  0.70701742  0.74712705     0.79300
C790        C  0.01438700  0.60135026  0.74900312     0.79400
C791        C  0.01299986  0.65518597  0.81692112     0.79300
C792        C  0.01559887  0.65317188  0.67830328     0.79200
C793        C  0.01259545  0.65559914  0.88895668    -0.11400
C794        C  0.01243034  0.65558214  0.85605163    -0.13000
C795        C  0.01613103  0.65237215  0.63917067    -0.11400
C796        C  0.01587237  0.65213597  0.60626795    -0.13000
C797        C  0.35707443  0.99623997  0.89171336    -0.11400
C798        C  0.35798565  0.99636074  0.85880419    -0.13000
C799        C  0.35846768  0.99669724  0.64178165    -0.11400
C800        C  0.35783648  0.99698152  0.60889179    -0.13000
C801        C  0.01387562  0.76206407  0.74972344    -0.11400
C802        C  0.01401885  0.73703185  0.74819832    -0.13000
C803        C  0.01594746  0.76224236  0.99969502    -0.11400
C804        C  0.01657106  0.73663689  0.50048662    -0.13000
C805        C  0.01429503  0.84621200  0.89374635    -0.11400
C806        C  0.01441009  0.84575245  0.86080208    -0.13000
C807        C  0.01340125  0.84437212  0.64371512    -0.11400
C808        C  0.01371351  0.84393322  0.61082986    -0.13000
C809        C  0.25158008  0.99427631  0.74935664    -0.11400
C810        C  0.27661068  0.99419599  0.74952554    -0.13000
C811        C  0.24845557  0.49589481  0.99886767    -0.11400
C812        C  0.27543749  0.99528499  0.49891161    -0.13000
C813        C  0.16772354  0.99612546  0.85812566    -0.11400
C814        C  0.16651817  0.99659394  0.89099730    -0.13000
C815        C  0.16854679  0.99720700  0.64104883    -0.11400
C816        C  0.16842381  0.99727743  0.60812233    -0.13000
O817        O  0.70469152  0.47600261  0.00014992    -0.69900
O818        O  0.62753950  0.47581571  0.49819404    -0.70100
O819        O  0.66711484  0.47472810  0.44689825    -0.70000
O820        O  0.66472299  0.47745026  0.05112796    -0.70000
O821        O  0.66595788  0.02094351  0.05052150    -0.70000
O822        O  0.66699856  0.01830284  0.44643047    -0.70000
O823        O  0.62630153  0.02126912  0.99941213    -0.69900
O824        O  0.70723635  0.01841907  0.49689733    -0.70100
V825        V  0.66679209  0.47561711  0.49874890     1.35200
V826        V  0.66801272  0.01822442  0.49834290     1.35200
C827        C  0.72029050  0.99605342  0.49828364     0.79300
C828        C  0.61449321  0.49822605  0.50005831     0.79400
C829        C  0.66668937  0.49697226  0.42941406     0.79300
C830        C  0.66546593  0.49993923  0.06804476     0.79200
O831        O  0.70779062  0.01795025  0.24756660    -0.69900
O832        O  0.62929102  0.02066844  0.25242334    -0.70100
O833        O  0.67018971  0.01818291  0.30155661    -0.70000
O834        O  0.66672829  0.02046897  0.19793330    -0.70000
O835        O  0.66723031  0.47750170  0.19625050    -0.70000
O836        O  0.66699206  0.47572310  0.29998884    -0.70000
O837        O  0.62802519  0.47755114  0.24793798    -0.69900
O838        O  0.70645542  0.47570762  0.24826029    -0.70100
V839        V  0.66850845  0.01847377  0.24976984     1.35200
V840        V  0.66722345  0.47749181  0.24812816     1.35200
C841        C  0.72036105  0.49758414  0.24815859     0.79300
C842        C  0.61485728  0.49984730  0.25030071     0.79400
C843        C  0.66794312  0.49764943  0.31815747     0.79300
C844        C  0.66679964  0.50002491  0.17940294     0.79200
O845        O  0.99222775  0.30486140  0.00158488    -0.69900
O846        O  0.99160284  0.38355193  0.50437594    -0.70100
O847        O  0.99245050  0.34548702  0.45076919    -0.70000
O848        O  0.99181552  0.34324118  0.05480952    -0.70000
O849        O  0.53576910  0.34584503  0.05422072    -0.70000
O850        O  0.53717543  0.34377571  0.45107896    -0.70000
O851        O  0.53463983  0.38464987  0.00157585    -0.69900
O852        O  0.53801831  0.30543960  0.50424160    -0.70100
V853        V  0.99335390  0.34435986  0.50267041     1.35200
V854        V  0.53615245  0.34469455  0.50290987     1.35200
C855        C  0.51617428  0.29147566  0.50321495     0.79300
C856        C  0.51348549  0.39701473  0.50277287     0.79400
C857        C  0.51499321  0.34404245  0.43346053     0.79300
C858        C  0.51365219  0.34418881  0.07184988     0.79200
O859        O  0.99339292  0.30615337  0.25092461    -0.69900
O860        O  0.99210284  0.38463287  0.25446804    -0.70100
O861        O  0.99257469  0.34656958  0.20077698    -0.70000
O862        O  0.99281936  0.34423640  0.30446334    -0.70000
O863        O  0.53738317  0.34624422  0.30421279    -0.70000
O864        O  0.53672876  0.34538261  0.20037990    -0.70000
O865        O  0.53628915  0.38509541  0.25145506    -0.69900
O866        O  0.53764162  0.30659412  0.25265613    -0.70100
V867        V  0.99357822  0.34540896  0.25263881     1.35200
V868        V  0.53615721  0.34584692  0.25225026     1.35200
C869        C  0.51561586  0.29292730  0.25171417     0.79300
C870        C  0.51402155  0.39842648  0.25286881     0.79400
C871        C  0.51437012  0.34554504  0.18314747     0.79300
C872        C  0.51527067  0.34514093  0.32200333     0.79200
O873        O  0.81882220  0.47417443  0.49868157    -0.69900
O874        O  0.89557213  0.47699157  0.00331549    -0.70100
O875        O  0.85451229  0.47628713  0.05207674    -0.70000
O876        O  0.85893208  0.47538668  0.44802315    -0.70000
O877        O  0.85755403  0.01911785  0.44729976    -0.70000
O878        O  0.85607756  0.01993932  0.05076818    -0.70000
O879        O  0.89692954  0.02067077  0.49915053    -0.69900
O880        O  0.81590856  0.01858545  0.99998022    -0.70100
V881        V  0.85637411  0.47706615  0.00041508     1.35200
V882        V  0.85515354  0.01843476  0.99883275     1.35200
C883        C  0.80342905  0.49765739  0.99901356     0.79300
C884        C  0.90901575  0.49918776  0.00151077     0.79400
C885        C  0.85534250  0.49851811  0.06946540     0.79300
C886        C  0.85763210  0.49761140  0.43053540     0.79200
O887        O  0.81826968  0.01777607  0.25151686    -0.69900
O888        O  0.89679642  0.02063878  0.24793925    -0.70100
O889        O  0.85608909  0.01962598  0.19802293    -0.70000
O890        O  0.85889564  0.01881588  0.30176462    -0.70000
O891        O  0.85755652  0.47559547  0.30167007    -0.70000
O892        O  0.85951533  0.47564928  0.19797167    -0.70000
O893        O  0.89792667  0.47681426  0.25144814    -0.69900
O894        O  0.81925182  0.47477233  0.24837462    -0.70100
V895        V  0.85754675  0.01835483  0.24984700     1.35200
V896        V  0.85857237  0.47653530  0.24984066     1.35200
C897        C  0.80538855  0.49670326  0.24956430     0.79300
C898        C  0.91101632  0.49925710  0.24980934     0.79400
C899        C  0.85757154  0.49783123  0.18049997     0.79300
C900        C  0.85808984  0.49781845  0.31917869     0.79200
N901        N  0.98038333  0.02926313  0.99696254    -0.34700
N902        N  0.54033431  0.02965655  0.00049504    -0.55300
N903        N  0.54258689  0.46901422  0.50080222    -0.34700
N904        N  0.98233800  0.46934462  0.50326482    -0.55300
C905        C  0.98605639  0.05577082  0.00571586     0.28800
C906        C  0.95408243  0.02384627  0.00699225     0.28800
C907        C  0.56860377  0.47496571  0.51126463     0.28800
C908        C  0.53686530  0.44313633  0.51210669     0.28800
C909        C  0.53459575  0.05542680  0.98880063     0.37500
C910        C  0.56646364  0.02399393  0.99011444     0.37500
C911        C  0.95628554  0.47461347  0.49226725     0.37500
C912        C  0.98797054  0.44301135  0.49383382     0.37500
C913        C  0.96312198  0.06707394  0.02220728    -0.20000
C914        C  0.94312636  0.04713934  0.02292369    -0.20000
C915        C  0.57914532  0.45292111  0.53052902    -0.20000
C916        C  0.55922892  0.43294528  0.53105903    -0.20000
C917        C  0.55697331  0.06577772  0.97005470    -0.21100
C918        C  0.57701817  0.04601391  0.97090309    -0.21900
C919        C  0.94570380  0.45168422  0.47501498    -0.21100
C920        C  0.96559627  0.43182139  0.47606059    -0.21100
C921        C  0.51017025  0.07016577  0.99737145    -0.16400
C922        C  0.94165261  0.49928050  0.49987792    -0.16400
C923        C  0.51277048  0.42815508  0.50288834    -0.16400
C924        C  0.58340431  0.49891090  0.50094012    -0.16400
H925        H  0.96083866  0.08737624  0.03343612     0.16500
H926        H  0.92303010  0.04964566  0.03475026     0.16500
H927        H  0.59904414  0.45125749  0.54323059     0.16500
H928        H  0.56114917  0.41326550  0.54429294     0.16500
H929        H  0.55870734  0.08531364  0.95641006     0.14800
H930        H  0.59686234  0.04769362  0.95808462     0.14800
H931        H  0.92601096  0.44944351  0.46194996     0.14800
H932        H  0.96377913  0.41171398  0.46405757     0.14800
H933        H  0.99291643  0.01633769  0.98176733     0.28000
H934        H  0.53063635  0.48068306  0.48321941     0.28000
N935        N  0.98308673  0.47019954  0.25381190    -0.34700
N936        N  0.54320271  0.47036119  0.25186631    -0.55300
N937        N  0.54310451  0.03040336  0.25275538    -0.34700
N938        N  0.98306139  0.03039659  0.24829291    -0.55300
C939        C  0.98928129  0.44416051  0.24363605     0.28800
C940        C  0.95732602  0.47582371  0.24199917     0.28800
C941        C  0.56931971  0.02450158  0.24282837     0.28800
C942        C  0.53741874  0.05639731  0.24173254     0.28800
C943        C  0.53788876  0.44426198  0.26245595     0.37500
C944        C  0.56937574  0.47594467  0.26181664     0.37500
C945        C  0.95662860  0.02498885  0.25762041     0.37500
C946        C  0.98831028  0.05681612  0.25777543     0.37500
C947        C  0.96742773  0.43343544  0.22419511    -0.20000
C948        C  0.94739049  0.45329179  0.22315821    -0.20000
C949        C  0.58018274  0.04686587  0.22463291    -0.20000
C950        C  0.56021446  0.06678601  0.22382346    -0.20000
C951        C  0.56054492  0.43361280  0.28027591    -0.21100
C952        C  0.58039260  0.45354967  0.27980347    -0.21100
C953        C  0.94533154  0.04795418  0.27392036    -0.21100
C954        C  0.96521773  0.06792284  0.27404845    -0.21100
C955        C  0.51369650  0.42956659  0.25309418    -0.16400
C956        C  0.94223096  0.50009889  0.25016446    -0.16400
C957        C  0.51279554  0.07122535  0.24961753    -0.16400
C958        C  0.58377225  0.50019846  0.25196419    -0.16400
H959        H  0.96601390  0.41354388  0.21144847     0.16500
H960        H  0.92790886  0.45130247  0.20944530     0.16500
H961        H  0.60019607  0.04868041  0.21232535     0.16500
H962        H  0.56236373  0.08642237  0.21057990     0.16500
H963        H  0.56270675  0.41370847  0.29280691     0.14800
H964        H  0.60047916  0.45168104  0.29190065     0.14800
H965        H  0.92509865  0.05021475  0.28540251     0.14800
H966        H  0.96280087  0.08808574  0.28568164     0.14800
H967        H  0.99470607  0.48247240  0.27127934     0.28000
H968        H  0.53066059  0.01830644  0.26932610     0.28000
O969        O  0.99343249  0.19392897  0.50039465    -0.69900
O970        O  0.99017335  0.11556870  0.99618023    -0.70100
O971        O  0.99089973  0.15388250  0.04966774    -0.70000
O972        O  0.99283573  0.15608448  0.44655056    -0.70000
O973        O  0.53780658  0.15397717  0.44617146    -0.70000
O974        O  0.53421180  0.15403998  0.04991751    -0.70000
O975        O  0.53700364  0.11402668  0.49759286    -0.69900
O976        O  0.53547715  0.19308725  0.99780917    -0.70100
V977        V  0.99216987  0.15479359  0.99772899     1.35200
V978        V  0.53352852  0.15380709  0.99809059     1.35200
C979        C  0.51364063  0.20708363  0.99831413     0.79300
C980        C  0.51077489  0.10140168  0.99748889     0.79400
C981        C  0.51193156  0.15420367  0.06729727     0.79300
C982        C  0.51552562  0.15548430  0.42887880     0.79200
O983        O  0.99314837  0.19512602  0.24917648    -0.69900
O984        O  0.99172115  0.11650875  0.24793998    -0.70100
O985        O  0.99275996  0.15554397  0.30049237    -0.70000
O986        O  0.99187220  0.15613200  0.19675833    -0.70000
O987        O  0.53559530  0.15428772  0.19582373    -0.70000
O988        O  0.53684340  0.15581733  0.29965575    -0.70000
O989        O  0.53541405  0.11581221  0.24918785    -0.69900
O990        O  0.53700186  0.19427970  0.24694425    -0.70100
V991        V  0.99324044  0.15581835  0.24859168     1.35200
V992        V  0.53535163  0.15505780  0.24782567     1.35200
C993        C  0.51508163  0.20807890  0.24822201     0.79300
C994        C  0.51312788  0.10248499  0.24893754     0.79400
C995        C  0.51479060  0.15592079  0.31757730     0.79300
C996        C  0.51314935  0.15502589  0.17873774     0.79200
C997        C  0.51535345  0.15614608  0.38969301    -0.11400
C998        C  0.51516502  0.15622444  0.35676247    -0.13000
C999        C  0.51253506  0.15467153  0.13949461    -0.11400
C1000       C  0.51195351  0.15437584  0.10654098    -0.13000
C1001       C  0.85775613  0.49770020  0.39132325    -0.11400
C1002       C  0.85793042  0.49779501  0.35838327    -0.13000
C1003       C  0.85659776  0.49794244  0.14141526    -0.11400
C1004       C  0.85571345  0.49839891  0.10856256    -0.13000
C1005       C  0.51591629  0.26300221  0.25048204    -0.11400
C1006       C  0.51568237  0.23800944  0.24923508    -0.13000
C1007       C  0.51691247  0.26148141  0.50295672    -0.11400
C1008       C  0.51440965  0.23710305  0.99892719    -0.13000
C1009       C  0.51516241  0.34428475  0.39421477    -0.11400
C1010       C  0.51539917  0.34469039  0.36125417    -0.13000
C1011       C  0.51406886  0.34498949  0.14396246    -0.11400
C1012       C  0.51380426  0.34442018  0.11104106    -0.13000
C1013       C  0.75035409  0.49682352  0.24839091    -0.11400
C1014       C  0.77539293  0.49635675  0.24892922    -0.13000
C1015       C  0.75026424  0.99573946  0.49792002    -0.11400
C1016       C  0.77344252  0.49737105  0.99880339    -0.13000
C1017       C  0.66742384  0.49710918  0.35731944    -0.11400
C1018       C  0.66687733  0.49699321  0.39023384    -0.13000
C1019       C  0.66608383  0.50060405  0.14019752    -0.11400
C1020       C  0.66561216  0.50051916  0.10725538    -0.13000
O1021       O  0.70604390  0.47379940  0.49923335    -0.69900
O1022       O  0.62619865  0.47731974  0.99814101    -0.70100
O1023       O  0.66619656  0.47570116  0.94744423    -0.70000
O1024       O  0.66641794  0.47473265  0.55063194    -0.70000
O1025       O  0.66901335  0.01985726  0.55018570    -0.70000
O1026       O  0.66543918  0.02019125  0.94677375    -0.70000
O1027       O  0.62884733  0.01977236  0.49993921    -0.69900
O1028       O  0.70494041  0.01965003  0.99820678    -0.70100
V1029       V  0.66544261  0.47748937  0.99922367     1.35200
V1030       V  0.66561557  0.01966094  0.99869459     1.35200
C1031       C  0.71784596  0.99714784  0.99900123     0.79300
C1032       C  0.61287709  0.49961059  0.99848642     0.79400
C1033       C  0.66639744  0.49762841  0.92927149     0.79300
C1034       C  0.66801975  0.49692881  0.56811938     0.79200
O1035       O  0.70888922  0.01862761  0.74800162    -0.69900
O1036       O  0.63038031  0.02049627  0.75118968    -0.70100
O1037       O  0.67059861  0.01928533  0.80114530    -0.70000
O1038       O  0.66855579  0.02011071  0.69750640    -0.70000
O1039       O  0.66898424  0.47481363  0.69666274    -0.70000
O1040       O  0.66789618  0.47434302  0.80035776    -0.70000
O1041       O  0.62929824  0.47597174  0.74766020    -0.69900
O1042       O  0.70780562  0.47344889  0.74914985    -0.70100
V1043       V  0.66961699  0.01876409  0.74937320     1.35200
V1044       V  0.66853365  0.47550098  0.74847515     1.35200
C1045       C  0.72181638  0.49527756  0.74848596     0.79300
C1046       C  0.61628553  0.49841956  0.74941215     0.79400
C1047       C  0.66904080  0.49647277  0.81805423     0.79300
C1048       C  0.66883745  0.49711505  0.67932734     0.79200
O1049       O  0.99341617  0.30506868  0.50125925    -0.69900
O1050       O  0.99033908  0.38335645  0.00463104    -0.70100
O1051       O  0.99065506  0.34506428  0.95104368    -0.70000
O1052       O  0.99253088  0.34336525  0.55446867    -0.70000
O1053       O  0.53694586  0.34577046  0.55475224    -0.70000
O1054       O  0.53566810  0.34486591  0.95064491    -0.70000
O1055       O  0.53590986  0.38394864  0.50144306    -0.69900
O1056       O  0.53634713  0.30595381  0.00284686    -0.70100
V1057       V  0.99212010  0.34414974  0.00296327     1.35200
V1058       V  0.53476342  0.34530341  0.00238535     1.35200
C1059       C  0.51439002  0.29217173  0.00090051     0.79300
C1060       C  0.51222913  0.39773467  0.00363624     0.79400
C1061       C  0.51347486  0.34568748  0.93314947     0.79300
C1062       C  0.51472026  0.34462484  0.57222128     0.79200
O1063       O  0.99133152  0.30533991  0.75011845    -0.69900
O1064       O  0.99198553  0.38389486  0.75428599    -0.70100
O1065       O  0.99186944  0.34613136  0.70034091    -0.70000
O1066       O  0.99113238  0.34329614  0.80394279    -0.70000
O1067       O  0.53688338  0.34477314  0.80452218    -0.70000
O1068       O  0.53687163  0.34449844  0.70077188    -0.70000
O1069       O  0.53687315  0.38383218  0.75226534    -0.69900
O1070       O  0.53687985  0.30529476  0.75251499    -0.70100
V1071       V  0.99243490  0.34464271  0.75216658     1.35200
V1072       V  0.53602142  0.34457457  0.75259010     1.35200
C1073       C  0.51470432  0.29189235  0.75119099     0.79300
C1074       C  0.51478699  0.39744814  0.75348868     0.79400
C1075       C  0.51462002  0.34522774  0.68333961     0.79300
C1076       C  0.51460296  0.34435281  0.82197923     0.79200
O1077       O  0.81712140  0.47563808  0.99790680    -0.69900
O1078       O  0.89725729  0.47650208  0.50136163    -0.70100
O1079       O  0.85728984  0.47506457  0.55175393    -0.70000
O1080       O  0.85838026  0.47593139  0.94863130    -0.70000
O1081       O  0.85435347  0.01855970  0.94696007    -0.70000
O1082       O  0.85752617  0.02078063  0.55102180    -0.70000
O1083       O  0.89438729  0.02003889  0.99735904    -0.69900
O1084       O  0.81822063  0.01910950  0.49912151    -0.70100
V1085       V  0.85804862  0.47614937  0.49992626     1.35200
V1086       V  0.85755218  0.01907908  0.49918468     1.35200
C1087       C  0.80485209  0.49600768  0.49946848     0.79300
C1088       C  0.91042822  0.49886854  0.50011103     0.79400
C1089       C  0.85764630  0.49722996  0.56938872     0.79300
C1090       C  0.85730348  0.49802241  0.93084562     0.79200
O1091       O  0.81944239  0.01854586  0.75057507    -0.69900
O1092       O  0.89796245  0.02072311  0.74887260    -0.70100
O1093       O  0.85795910  0.02042166  0.69813331    -0.70000
O1094       O  0.85920709  0.01895776  0.80177999    -0.70000
O1095       O  0.85881433  0.47514254  0.80225999    -0.70000
O1096       O  0.86144622  0.47476690  0.69850652    -0.70000
O1097       O  0.89935280  0.47633860  0.75251849    -0.69900
O1098       O  0.82089813  0.47373339  0.74861463    -0.70100
V1099       V  0.85869519  0.01879762  0.74987976     1.35200
V1100       V  0.86012625  0.47584262  0.75042640     1.35200
C1101       C  0.80683287  0.49551144  0.74961404     0.79300
C1102       C  0.91238308  0.49877619  0.75078022     0.79400
C1103       C  0.85958573  0.49685826  0.68077649     0.79300
C1104       C  0.85912203  0.49745460  0.81957971     0.79200
N1105       N  0.98293672  0.02915446  0.49973734    -0.34700
N1106       N  0.54339438  0.02889581  0.50018794    -0.55300
N1107       N  0.54106341  0.46975458  0.00010904    -0.34700
N1108       N  0.98092936  0.46931264  0.00476097    -0.55300
C1109       C  0.98872189  0.05562277  0.50845106     0.28800
C1110       C  0.95677527  0.02372372  0.51031678     0.28800
C1111       C  0.56713811  0.47594319  0.00998015     0.28800
C1112       C  0.53551570  0.44402072  0.01204020     0.28800
C1113       C  0.53804216  0.05471025  0.48838460     0.37500
C1114       C  0.56945836  0.02288836  0.48998061     0.37500
C1115       C  0.95472692  0.47454045  0.99433980     0.37500
C1116       C  0.98640098  0.44290502  0.99544740     0.37500
C1117       C  0.96610537  0.06682954  0.52584719    -0.20000
C1118       C  0.94609169  0.04686921  0.52694439    -0.20000
C1119       C  0.57790526  0.45413248  0.02955498    -0.20000
C1120       C  0.55808224  0.43408256  0.03075876    -0.20000
C1121       C  0.56060024  0.06477711  0.46976720    -0.21100
C1122       C  0.58036433  0.04474954  0.47075962    -0.21900
C1123       C  0.94387654  0.45149894  0.97767762    -0.21100
C1124       C  0.96374452  0.43164039  0.97841372    -0.21100
C1125       C  0.51379442  0.06970903  0.49682591    -0.16400
C1126       C  0.94023964  0.49935238  0.00162015    -0.16400
C1127       C  0.51136668  0.42888192  0.00371934    -0.16400
C1128       C  0.58173531  0.49991263  0.99909301    -0.16400
H1129       H  0.96405056  0.08714875  0.53713578     0.16500
H1130       H  0.92607946  0.04927181  0.53909193     0.16500
H1131       H  0.59784953  0.45267150  0.04214509     0.16500
H1132       H  0.56014545  0.41454280  0.04432231     0.16500
H1133       H  0.56264622  0.08428814  0.45613795     0.14800
H1134       H  0.60025934  0.04616667  0.45802412     0.14800
H1135       H  0.92404967  0.44918302  0.96501891     0.14800
H1136       H  0.96170796  0.41153450  0.96649337     0.14800
H1137       H  0.99515038  0.01637824  0.48385879     0.28000
H1138       H  0.52879502  0.48124576  0.98246857     0.28000
N1139       N  0.98429629  0.46932594  0.75425812    -0.34700
N1140       N  0.54448209  0.46924207  0.75108118    -0.55300
N1141       N  0.54447547  0.02949433  0.75321191    -0.34700
N1142       N  0.98422382  0.02955470  0.74807642    -0.55300
C1143       C  0.99019609  0.44322629  0.74407686     0.28800
C1144       C  0.95846329  0.47508722  0.74283346     0.28800
C1145       C  0.57054419  0.02353144  0.74278274     0.28800
C1146       C  0.53864551  0.05530605  0.74170725     0.28800
C1147       C  0.53910932  0.44326477  0.76223524     0.37500
C1148       C  0.57063406  0.47494784  0.76103648     0.37500
C1149       C  0.95779319  0.02439542  0.75758637     0.37500
C1150       C  0.98977566  0.05579535  0.75797357     0.37500
C1151       C  0.96808497  0.43263419  0.72501236    -0.20000
C1152       C  0.94820724  0.45259656  0.72422986    -0.20000
C1153       C  0.58107962  0.04563068  0.72363351    -0.20000
C1154       C  0.56109694  0.06553921  0.72296335    -0.20000
C1155       C  0.56170806  0.43278540  0.78030755    -0.21100
C1156       C  0.58153659  0.45275355  0.77963094    -0.21100
C1157       C  0.94681126  0.04731193  0.77435831    -0.21100
C1158       C  0.96691593  0.06700744  0.77468651    -0.21100
C1159       C  0.51475306  0.42858688  0.75356014    -0.16400
C1160       C  0.94356313  0.49945356  0.75108059    -0.16400
C1161       C  0.51418530  0.07013206  0.74988325    -0.16400
C1162       C  0.58516338  0.49905536  0.75068088    -0.16400
H1163       H  0.96639215  0.41280300  0.71217551     0.16500
H1164       H  0.92864066  0.45070045  0.71071902     0.16500
H1165       H  0.60088319  0.04730164  0.71070048     0.16500
H1166       H  0.56294167  0.08510031  0.70941032     0.16500
H1167       H  0.56377581  0.41301583  0.79324733     0.14800
H1168       H  0.60154012  0.45103645  0.79200952     0.14800
H1169       H  0.92669865  0.04968505  0.78615908     0.14800
H1170       H  0.96482590  0.08705492  0.78679107     0.14800
H1171       H  0.99618531  0.48155269  0.77147088     0.28000
H1172       H  0.53229122  0.01767925  0.77043391     0.28000
O1173       O  0.99239554  0.19406438  0.99899961    -0.69900
O1174       O  0.99190592  0.11529757  0.49658028    -0.70100
O1175       O  0.99249494  0.15316913  0.55026642    -0.70000
O1176       O  0.99173016  0.15573919  0.94588944    -0.70000
O1177       O  0.53470758  0.15355732  0.94620801    -0.70000
O1178       O  0.53848655  0.15268662  0.54977548    -0.70000
O1179       O  0.53319812  0.11451143  0.99864862    -0.69900
O1180       O  0.53882216  0.19268559  0.49896267    -0.70100
V1181       V  0.99352452  0.15461172  0.49843121     1.35200
V1182       V  0.53717800  0.15335835  0.49804732     1.35200
C1183       C  0.51686039  0.20645920  0.50072867     0.79300
C1184       C  0.51456986  0.10089815  0.49660070     0.79400
C1185       C  0.51639239  0.15209177  0.56751327     0.79300
C1186       C  0.51259461  0.15469001  0.92846859     0.79200
O1187       O  0.99214753  0.19320697  0.74861863    -0.69900
O1188       O  0.99275742  0.11479614  0.74704773    -0.70100
O1189       O  0.99223455  0.15347100  0.79981646    -0.70000
O1190       O  0.99265800  0.15433889  0.69616597    -0.70000
O1191       O  0.53820223  0.15281985  0.69689024    -0.70000
O1192       O  0.53615934  0.15519897  0.80048706    -0.70000
O1193       O  0.53674527  0.11477747  0.75051807    -0.69900
O1194       O  0.53727880  0.19340895  0.74736048    -0.70100
V1195       V  0.99332165  0.15396994  0.74794449     1.35200
V1196       V  0.53625046  0.15407927  0.74870742     1.35200
C1197       C  0.51509780  0.20688644  0.74732570     0.79300
C1198       C  0.51454681  0.10130021  0.74908152     0.79400
C1199       C  0.51361175  0.15493842  0.81722584     0.79300
C1200       C  0.51630851  0.15298265  0.67861273     0.79200
C1201       C  0.51278388  0.15496831  0.88929522    -0.11400
C1202       C  0.51297056  0.15509986  0.85637881    -0.13000
C1203       C  0.51691203  0.15198924  0.63951343    -0.11400
C1204       C  0.51675441  0.15160937  0.60662642    -0.13000
C1205       C  0.85813947  0.49780576  0.89167860    -0.11400
C1206       C  0.85872591  0.49763907  0.85876183    -0.13000
C1207       C  0.85904874  0.49676990  0.64155040    -0.11400
C1208       C  0.85830309  0.49702464  0.60861144    -0.13000
C1209       C  0.51481491  0.26191126  0.74957268    -0.11400
C1210       C  0.51505849  0.23688541  0.74819250    -0.13000
C1211       C  0.51472993  0.26215652  0.99976026    -0.11400
C1212       C  0.51721565  0.23644283  0.50216441    -0.13000
C1213       C  0.51369077  0.34556207  0.89400203    -0.11400
C1214       C  0.51433602  0.34496757  0.86111701    -0.13000
C1215       C  0.51457818  0.34532402  0.64422443    -0.11400
C1216       C  0.51463962  0.34508526  0.61133850    -0.13000
C1217       C  0.75180713  0.49459102  0.74869788    -0.11400
C1218       C  0.77684891  0.49469903  0.74909459    -0.13000
C1219       C  0.74783001  0.99640946  0.99870230    -0.11400
C1220       C  0.77489768  0.49527882  0.49878686    -0.13000
C1221       C  0.66830714  0.49644135  0.85722178    -0.11400
C1222       C  0.66734716  0.49692187  0.89011660    -0.13000
C1223       C  0.66858931  0.49719382  0.64017200    -0.11400
C1224       C  0.66835055  0.49700449  0.60726637    -0.13000
O1225       O  0.70395340  0.97527307  0.99997492    -0.69900
O1226       O  0.62799649  0.97555832  0.49857571    -0.70100
O1227       O  0.66775925  0.97384884  0.44761576    -0.70000
O1228       O  0.66406804  0.97651872  0.05108352    -0.70000
O1229       O  0.66628296  0.52187818  0.04989800    -0.70000
O1230       O  0.66639278  0.51919104  0.44697548    -0.70000
O1231       O  0.62679854  0.52153674  0.99855090    -0.69900
O1232       O  0.70703780  0.51816834  0.49693995    -0.70100
V1233       V  0.66726700  0.97558864  0.49939582     1.35200
V1234       V  0.66781324  0.51825307  0.49883546     1.35200
C1235       C  0.71992545  0.49568990  0.49802789     0.79300
C1236       C  0.61482926  0.99794202  0.49948655     0.79400
C1237       C  0.66737279  0.99580010  0.42950747     0.79300
C1238       C  0.66501857  0.99886196  0.06832643     0.79200
O1239       O  0.70745983  0.52010230  0.24810849    -0.69900
O1240       O  0.62887747  0.52170052  0.25136895    -0.70100
O1241       O  0.66913267  0.52012923  0.30130099    -0.70000
O1242       O  0.66698586  0.52195294  0.19761767    -0.70000
O1243       O  0.66765004  0.97602947  0.19631635    -0.70000
O1244       O  0.66616188  0.97391367  0.29996410    -0.70000
O1245       O  0.62779494  0.97665402  0.24700392    -0.69900
O1246       O  0.70630586  0.97358860  0.24912639    -0.70100
V1247       V  0.66813133  0.52012078  0.24949164     1.35200
V1248       V  0.66702742  0.97589007  0.24813873     1.35200
C1249       C  0.72046945  0.99532446  0.24835726     0.79300
C1250       C  0.61492908  0.99910288  0.25019643     0.79400
C1251       C  0.66815674  0.99569768  0.31827291     0.79300
C1252       C  0.66681935  0.99858554  0.17960574     0.79200
O1253       O  0.99273840  0.80500700  0.99968459    -0.69900
O1254       O  0.99206231  0.88303168  0.50390843    -0.70100
O1255       O  0.99336621  0.84503947  0.45011299    -0.70000
O1256       O  0.99123734  0.84239948  0.05392571    -0.70000
O1257       O  0.53541452  0.84552256  0.05445510    -0.70000
O1258       O  0.53751837  0.84441662  0.45099061    -0.70000
O1259       O  0.53424928  0.88475489  0.00243897    -0.69900
O1260       O  0.53806633  0.80556764  0.50366810    -0.70100
V1261       V  0.99368254  0.84385901  0.50202446     1.35200
V1262       V  0.53628613  0.84485833  0.50283856     1.35200
C1263       C  0.51618092  0.79166457  0.50237135     0.79300
C1264       C  0.51363884  0.89717467  0.50340507     0.79400
C1265       C  0.51540240  0.84503022  0.43323722     0.79300
C1266       C  0.51320718  0.84384399  0.07190051     0.79200
O1267       O  0.99247039  0.80614412  0.25185041    -0.69900
O1268       O  0.99187039  0.88472121  0.25386713    -0.70100
O1269       O  0.99119873  0.84601846  0.20098471    -0.70000
O1270       O  0.99303130  0.84486268  0.30473347    -0.70000
O1271       O  0.53734616  0.84730429  0.30369273    -0.70000
O1272       O  0.53596364  0.84443133  0.20002406    -0.70000
O1273       O  0.53578291  0.88502151  0.24967429    -0.69900
O1274       O  0.53738758  0.80665041  0.25337587    -0.70100
V1275       V  0.99299276  0.84544314  0.25284328     1.35200
V1276       V  0.53576403  0.84585482  0.25179455     1.35200
C1277       C  0.51545050  0.79287220  0.25208892     0.79300
C1278       C  0.51355464  0.89832453  0.25189034     0.79400
C1279       C  0.51351332  0.84487035  0.18305380     0.79300
C1280       C  0.51538999  0.84598463  0.32179375     0.79200
O1281       O  0.81912714  0.97471948  0.49795495    -0.69900
O1282       O  0.89517266  0.97603372  0.00272785    -0.70100
O1283       O  0.85411563  0.97552591  0.05170980    -0.70000
O1284       O  0.86029522  0.97475251  0.44866513    -0.70000
O1285       O  0.85626917  0.51976972  0.44812218    -0.70000
O1286       O  0.85625328  0.52072673  0.05187523    -0.70000
O1287       O  0.89628568  0.52064546  0.49891870    -0.69900
O1288       O  0.81654371  0.51999991  0.00050733    -0.70100
V1289       V  0.85593174  0.97583698  0.99994023     1.35200
V1290       V  0.85583203  0.51968956  0.99997561     1.35200
C1291       C  0.80286457  0.99621308  0.99857974     0.79300
C1292       C  0.90843035  0.99831579  0.00012620     0.79400
C1293       C  0.85515951  0.99790855  0.06878445     0.79300
C1294       C  0.85915193  0.99665806  0.43044129     0.79200
O1295       O  0.81833803  0.51911918  0.25118079    -0.69900
O1296       O  0.89679469  0.52092986  0.24798277    -0.70100
O1297       O  0.85626181  0.52000278  0.19800533    -0.70000
O1298       O  0.85869505  0.52004605  0.30162308    -0.70000
O1299       O  0.85837921  0.97436103  0.30117065    -0.70000
O1300       O  0.85979476  0.97532351  0.19737390    -0.70000
O1301       O  0.89837647  0.97651541  0.25065735    -0.69900
O1302       O  0.81977138  0.97347326  0.24816576    -0.70100
V1303       V  0.85756595  0.51915457  0.24974653     1.35200
V1304       V  0.85906791  0.97576049  0.24931851     1.35200
C1305       C  0.80559973  0.99518697  0.24971851     0.79300
C1306       C  0.91124413  0.99908547  0.24930526     0.79400
C1307       C  0.85761037  0.99760678  0.18015515     0.79300
C1308       C  0.85882535  0.99643822  0.31901539     0.79200
N1309       N  0.98101456  0.52957466  0.99800587    -0.34700
N1310       N  0.54106150  0.52982918  0.99978748    -0.55300
N1311       N  0.54284045  0.96889381  0.50092040    -0.34700
N1312       N  0.98274106  0.96885557  0.50613099    -0.55300
C1313       C  0.98687555  0.55600513  0.00683450     0.28800
C1314       C  0.95491944  0.52413918  0.00884591     0.28800
C1315       C  0.56890961  0.97482446  0.51102331     0.28800
C1316       C  0.53702259  0.94321710  0.51277180     0.28800
C1317       C  0.53536334  0.55561757  0.98815332     0.37500
C1318       C  0.56711712  0.52409591  0.98921711     0.37500
C1319       C  0.95664487  0.97422014  0.49533259     0.37500
C1320       C  0.98832642  0.94258179  0.49625734     0.37500
C1321       C  0.96434515  0.56720409  0.02442504    -0.20000
C1322       C  0.94433284  0.54728261  0.02559457    -0.20000
C1323       C  0.57940830  0.95295013  0.53070836    -0.20000
C1324       C  0.55938991  0.93308910  0.53176934    -0.20000
C1325       C  0.55767706  0.56592134  0.96923700    -0.21100
C1326       C  0.57765991  0.54609240  0.96992245    -0.21900
C1327       C  0.94597802  0.95140836  0.47792860    -0.21100
C1328       C  0.96585111  0.93155750  0.47851905    -0.21100
C1329       C  0.51104603  0.57041068  0.99698734    -0.16400
C1330       C  0.94210884  0.99900640  0.50264103    -0.16400
C1331       C  0.51288617  0.92828192  0.50385336    -0.16400
C1332       C  0.58375350  0.99857666  0.50009284    -0.16400
H1333       H  0.96235695  0.58744463  0.03596533     0.16500
H1334       H  0.92444295  0.54968614  0.03808062     0.16500
H1335       H  0.59933108  0.95131587  0.54333646     0.16500
H1336       H  0.56122917  0.91352253  0.54532507     0.16500
H1337       H  0.55940993  0.58547755  0.95563836     0.14800
H1338       H  0.59745587  0.54771943  0.95695828     0.14800
H1339       H  0.92630188  0.94929374  0.46479211     0.14800
H1340       H  0.96396605  0.91165931  0.46595291     0.14800
H1341       H  0.99318037  0.51677718  0.98205188     0.28000
H1342       H  0.53081072  0.98044588  0.48310975     0.28000
N1343       N  0.98340550  0.97022756  0.25242056    -0.34700
N1344       N  0.54305705  0.97015701  0.25049712    -0.55300
N1345       N  0.54308569  0.53049935  0.25388327    -0.34700
N1346       N  0.98286106  0.53034299  0.24922179    -0.55300
C1347       C  0.98946830  0.94414981  0.24219861     0.28800
C1348       C  0.95755397  0.97585259  0.24089552     0.28800
C1349       C  0.56904786  0.52452783  0.24300566     0.28800
C1350       C  0.53723172  0.55635346  0.24257035     0.28800
C1351       C  0.53767360  0.94400424  0.26086398     0.37500
C1352       C  0.56921602  0.97560572  0.26069673     0.37500
C1353       C  0.95638915  0.52500562  0.25838205     0.37500
C1354       C  0.98807980  0.55680773  0.25850323     0.37500
C1355       C  0.96749162  0.93343321  0.22304071    -0.20000
C1356       C  0.94749927  0.95331817  0.22216341    -0.20000
C1357       C  0.57945916  0.54661595  0.22375666    -0.20000
C1358       C  0.55953392  0.56655612  0.22347892    -0.20000
C1359       C  0.56027186  0.93318591  0.27859107    -0.21100
C1360       C  0.58012046  0.95306551  0.27846804    -0.21100
C1361       C  0.94504062  0.54806130  0.27439964    -0.21100
C1362       C  0.96493307  0.56801345  0.27450697    -0.21100
C1363       C  0.51330423  0.92943721  0.25200167    -0.16400
C1364       C  0.94246948  0.00008964  0.24935582    -0.16400
C1365       C  0.51282670  0.57119849  0.25094818    -0.16400
C1366       C  0.58379748  0.99989361  0.25149966    -0.16400
H1367       H  0.96596687  0.91351889  0.21037353     0.16500
H1368       H  0.92795682  0.95131585  0.20861313     0.16500
H1369       H  0.59913755  0.54822859  0.21047219     0.16500
H1370       H  0.56128228  0.58607285  0.20979976     0.16500
H1371       H  0.56232958  0.91326060  0.29108830     0.14800
H1372       H  0.60011242  0.95109480  0.29080789     0.14800
H1373       H  0.92476570  0.55040459  0.28571723     0.14800
H1374       H  0.96246915  0.58823507  0.28593594     0.14800
H1375       H  0.99511493  0.98243633  0.26970810     0.28000
H1376       H  0.53100287  0.51863346  0.27120745     0.28000
O1377       O  0.99362869  0.69370577  0.50038163    -0.69900
O1378       O  0.99031402  0.61576824  0.99661377    -0.70100
O1379       O  0.99161160  0.65436513  0.04959596    -0.70000
O1380       O  0.99250788  0.65631176  0.44618669    -0.70000
O1381       O  0.53728489  0.65463711  0.44680650    -0.70000
O1382       O  0.53570042  0.65391942  0.04988414    -0.70000
O1383       O  0.53608662  0.61417616  0.49766013    -0.69900
O1384       O  0.53637021  0.69322659  0.99785936    -0.70100
V1385       V  0.99216823  0.65506663  0.99769686     1.35200
V1386       V  0.53442914  0.65394745  0.99799516     1.35200
C1387       C  0.51454110  0.70718649  0.99946780     0.79300
C1388       C  0.51168474  0.60159934  0.99707770     0.79400
C1389       C  0.51359129  0.65330600  0.06768018     0.79300
C1390       C  0.51509342  0.65606428  0.42931321     0.79200
O1391       O  0.99267093  0.69487337  0.24720565    -0.69900
O1392       O  0.99153077  0.61635554  0.24815729    -0.70100
O1393       O  0.99208922  0.65613147  0.29958502    -0.70000
O1394       O  0.99211506  0.65508127  0.19578782    -0.70000
O1395       O  0.53668122  0.65304316  0.19666440    -0.70000
O1396       O  0.53722760  0.65670435  0.30037685    -0.70000
O1397       O  0.53585835  0.61562054  0.25120860    -0.69900
O1398       O  0.53773402  0.69416334  0.24645887    -0.70100
V1399       V  0.99297699  0.65560784  0.24767909     1.35200
V1400       V  0.53602890  0.65489539  0.24859323     1.35200
C1401       C  0.51580004  0.70799781  0.24761794     0.79300
C1402       C  0.51345885  0.60243066  0.25050698     0.79400
C1403       C  0.51507246  0.65696417  0.31805187     0.79300
C1404       C  0.51439813  0.65371288  0.17922128     0.79200
C1405       C  0.51517646  0.65731499  0.39015743    -0.11400
C1406       C  0.51522249  0.65762812  0.35723072    -0.13000
C1407       C  0.51417754  0.65286111  0.13994560    -0.11400
C1408       C  0.51387580  0.65274224  0.10695942    -0.13000
C1409       C  0.85941149  0.99610202  0.39121009    -0.11400
C1410       C  0.85923684  0.99610819  0.35825110    -0.13000
C1411       C  0.85662304  0.99792754  0.14094093    -0.11400
C1412       C  0.85570343  0.99817351  0.10800821    -0.13000
C1413       C  0.51602947  0.76293989  0.25049005    -0.11400
C1414       C  0.51624674  0.73794979  0.24876597    -0.13000
C1415       C  0.51675448  0.76166348  0.50235615    -0.11400
C1416       C  0.51523587  0.73718690  0.99996667    -0.13000
C1417       C  0.51568437  0.84569950  0.39399987    -0.11400
C1418       C  0.51580741  0.84606383  0.36103906    -0.13000
C1419       C  0.51308319  0.84420419  0.14393188    -0.11400
C1420       C  0.51311068  0.84378432  0.11103807    -0.13000
C1421       C  0.75050063  0.99443290  0.24867487    -0.11400
C1422       C  0.77556877  0.99435578  0.24921681    -0.13000
C1423       C  0.74987860  0.49514085  0.49823354    -0.11400
C1424       C  0.77286784  0.99595120  0.99848296    -0.13000
C1425       C  0.66790819  0.99503697  0.35742922    -0.11400
C1426       C  0.66756097  0.99518284  0.39034358    -0.13000
C1427       C  0.66592107  0.99922021  0.14043715    -0.11400
C1428       C  0.66528816  0.99916312  0.10751558    -0.13000
O1429       O  0.70655946  0.97407627  0.50005124    -0.69900
O1430       O  0.62547037  0.97705803  0.99822741    -0.70100
O1431       O  0.66546841  0.97572562  0.94738602    -0.70000
O1432       O  0.66668949  0.97545948  0.55127888    -0.70000
O1433       O  0.66929556  0.51911131  0.55059476    -0.70000
O1434       O  0.66598388  0.52015694  0.94612755    -0.70000
O1435       O  0.62863392  0.51998452  0.50109233    -0.69900
O1436       O  0.70537485  0.52037064  0.99776117    -0.70100
V1437       V  0.66472523  0.97701903  0.99918221     1.35200
V1438       V  0.66608198  0.52012812  0.99806156     1.35200
C1439       C  0.71842864  0.49797713  0.99896167     0.79300
C1440       C  0.61226011  0.99940689  0.99908354     0.79400
C1441       C  0.66586067  0.99781306  0.92957041     0.79300
C1442       C  0.66784267  0.99789403  0.56826422     0.79200
O1443       O  0.70902429  0.51782792  0.74779940    -0.69900
O1444       O  0.63049516  0.52013875  0.75033638    -0.70100
O1445       O  0.67054392  0.51873143  0.80071567    -0.70000
O1446       O  0.66890531  0.51928264  0.69701408    -0.70000
O1447       O  0.66854640  0.97564909  0.69683331    -0.70000
O1448       O  0.66842853  0.97487074  0.80065534    -0.70000
O1449       O  0.62938221  0.97632350  0.74864307    -0.69900
O1450       O  0.70782025  0.97423226  0.74876162    -0.70100
V1451       V  0.66974813  0.51813240  0.74889804     1.35200
V1452       V  0.66858958  0.97612623  0.74873573     1.35200
C1453       C  0.72173870  0.99610182  0.74829008     0.79300
C1454       C  0.61628144  0.99869023  0.75053598     0.79400
C1455       C  0.66934953  0.99699537  0.81841401     0.79300
C1456       C  0.66834006  0.99803424  0.67963496     0.79200
O1457       O  0.99361656  0.80460724  0.50051968    -0.69900
O1458       O  0.99036468  0.88329084  0.00499376    -0.70100
O1459       O  0.99176402  0.84605830  0.95032613    -0.70000
O1460       O  0.99219802  0.84275087  0.55377470    -0.70000
O1461       O  0.53689268  0.84552134  0.55469537    -0.70000
O1462       O  0.53555831  0.84556710  0.95076937    -0.70000
O1463       O  0.53607429  0.88412484  0.50195549    -0.69900
O1464       O  0.53651123  0.80618643  0.00253683    -0.70100
V1465       V  0.99239780  0.84420520  0.00219381     1.35200
V1466       V  0.53458515  0.84547320  0.00258735     1.35200
C1467       C  0.51466840  0.79222702  0.00099632     0.79300
C1468       C  0.51176381  0.89768801  0.00416313     0.79400
C1469       C  0.51335950  0.84610303  0.93321499     0.79300
C1470       C  0.51460896  0.84423311  0.57201389     0.79200
O1471       O  0.99164604  0.80549240  0.75140403    -0.69900
O1472       O  0.99184296  0.88407429  0.75344695    -0.70100
O1473       O  0.99137189  0.84539792  0.70055173    -0.70000
O1474       O  0.99195016  0.84431274  0.80428152    -0.70000
O1475       O  0.53636925  0.84535280  0.80445117    -0.70000
O1476       O  0.53646568  0.84427704  0.70069902    -0.70000
O1477       O  0.53662094  0.88399858  0.75171376    -0.69900
O1478       O  0.53611325  0.80543834  0.75295928    -0.70100
V1479       V  0.99256078  0.84480234  0.75241439     1.35200
V1480       V  0.53553975  0.84474757  0.75252201     1.35200
C1481       C  0.51383849  0.79218697  0.75151941     0.79300
C1482       C  0.51461183  0.89773532  0.75306459     0.79400
C1483       C  0.51425088  0.84516478  0.68319547     0.79300
C1484       C  0.51409584  0.84506147  0.82192295     0.79200
O1485       O  0.81663831  0.97422537  0.99746223    -0.69900
O1486       O  0.89749934  0.97659631  0.50354678    -0.70100
O1487       O  0.85642159  0.97632885  0.55220104    -0.70000
O1488       O  0.85795657  0.97425006  0.94813280    -0.70000
O1489       O  0.85548693  0.52030177  0.94809575    -0.70000
O1490       O  0.85764704  0.51952473  0.55193892    -0.70000
O1491       O  0.89514479  0.52107784  0.99925606    -0.69900
O1492       O  0.81766096  0.51854126  0.50075016    -0.70100
V1493       V  0.85832839  0.97646255  0.50049923     1.35200
V1494       V  0.85696131  0.51877252  0.49998874     1.35200
C1495       C  0.80527465  0.99663388  0.49823331     0.79300
C1496       C  0.91087193  0.99883405  0.50186597     0.79400
C1497       C  0.85684744  0.99879676  0.56909487     0.79300
C1498       C  0.85655416  0.99618186  0.93002174     0.79200
O1499       O  0.81956882  0.51808307  0.75102123    -0.69900
O1500       O  0.89813838  0.52044055  0.74870548    -0.70100
O1501       O  0.85794349  0.51909008  0.69813642    -0.70000
O1502       O  0.85965255  0.51960005  0.80184715    -0.70000
O1503       O  0.85941816  0.97449854  0.80073409    -0.70000
O1504       O  0.86023203  0.97601359  0.69707189    -0.70000
O1505       O  0.89915052  0.97654658  0.74974983    -0.69900
O1506       O  0.82062578  0.97418470  0.74821994    -0.70100
V1507       V  0.85885941  0.51845253  0.74997347     1.35200
V1508       V  0.85987070  0.97616987  0.74893650     1.35200
C1509       C  0.80665188  0.99601975  0.74922948     0.79300
C1510       C  0.91220537  0.99900919  0.74926360     0.79400
C1511       C  0.85878392  0.99845281  0.68012207     0.79300
C1512       C  0.85916977  0.99648032  0.81877498     0.79200
N1513       N  0.98247059  0.52943366  0.49704845    -0.34700
N1514       N  0.54291644  0.52913180  0.50112979    -0.55300
N1515       N  0.54040988  0.96971189  0.00112800    -0.34700
N1516       N  0.98040325  0.96910186  0.00426914    -0.55300
C1517       C  0.98838148  0.55574122  0.50630740     0.28800
C1518       C  0.95629978  0.52400460  0.50754292     0.28800
C1519       C  0.56649965  0.97589027  0.01101611     0.28800
C1520       C  0.53484688  0.94399160  0.01314906     0.28800
C1521       C  0.53751039  0.55495045  0.48933090     0.37500
C1522       C  0.56911374  0.52331939  0.49127995     0.37500
C1523       C  0.95430900  0.97410722  0.99327513     0.37500
C1524       C  0.98609492  0.94266975  0.99543019     0.37500
C1525       C  0.96580341  0.56690537  0.52382815    -0.20000
C1526       C  0.94570548  0.54704854  0.52454520    -0.20000
C1527       C  0.57723990  0.95413265  0.03070198    -0.20000
C1528       C  0.55737572  0.93410782  0.03201325    -0.20000
C1529       C  0.56019171  0.56519194  0.47114976    -0.21100
C1530       C  0.58007423  0.54532136  0.47243378    -0.21900
C1531       C  0.94371959  0.95090654  0.97672494    -0.21100
C1532       C  0.96368560  0.93116323  0.97806089    -0.21100
C1533       C  0.51305518  0.56978499  0.49728880    -0.16400
C1534       C  0.93963545  0.99884154  0.00008011    -0.16400
C1535       C  0.51081429  0.92878433  0.00440522    -0.16400
C1536       C  0.58110241  0.99981228  0.99996479    -0.16400
H1537       H  0.96386726  0.58708188  0.53559694     0.16500
H1538       H  0.92577460  0.54943447  0.53691021     0.16500
H1539       H  0.59722219  0.95268187  0.04320246     0.16500
H1540       H  0.55943388  0.91457349  0.04560029     0.16500
H1541       H  0.56224303  0.58467121  0.45745467     0.14800
H1542       H  0.60004002  0.54688602  0.45993675     0.14800
H1543       H  0.92398486  0.94842336  0.96384898     0.14800
H1544       H  0.96184806  0.91095664  0.96639050     0.14800
H1545       H  0.99473437  0.51673082  0.48102351     0.28000
H1546       H  0.52824136  0.98109449  0.98341473     0.28000
N1547       N  0.98405514  0.96955158  0.75262773    -0.34700
N1548       N  0.54447951  0.96947396  0.75192504    -0.55300
N1549       N  0.54452268  0.52948359  0.75167396    -0.34700
N1550       N  0.98424812  0.52944914  0.74956266    -0.55300
C1551       C  0.99003050  0.94348025  0.74240893     0.28800
C1552       C  0.95834848  0.97539455  0.74078143     0.28800
C1553       C  0.57055260  0.52343416  0.74120039     0.28800
C1554       C  0.53872861  0.55538655  0.74045067     0.28800
C1555       C  0.53905104  0.94338000  0.76245566     0.37500
C1556       C  0.57065520  0.97498697  0.76196728     0.37500
C1557       C  0.95786607  0.52421888  0.75920236     0.37500
C1558       C  0.98963326  0.55583388  0.75893445     0.37500
C1559       C  0.96812654  0.93297394  0.72285947    -0.20000
C1560       C  0.94827061  0.95299381  0.72180047    -0.20000
C1561       C  0.58112470  0.54559956  0.72217471    -0.20000
C1562       C  0.56118671  0.56563614  0.72173701    -0.20000
C1563       C  0.56164945  0.93262379  0.78027453    -0.21100
C1564       C  0.58154383  0.95253679  0.77999896    -0.21100
C1565       C  0.94674050  0.54721664  0.77559111    -0.21100
C1566       C  0.96671446  0.56706658  0.77549885    -0.21100
C1567       C  0.51470328  0.92884633  0.75329875    -0.16400
C1568       C  0.94341071  0.99970234  0.74923765    -0.16400
C1569       C  0.51430655  0.57021506  0.74902555    -0.16400
C1570       C  0.58518001  0.99918166  0.75205979    -0.16400
H1571       H  0.96655829  0.91312099  0.71004039     0.16500
H1572       H  0.92882099  0.95117563  0.70797019     0.16500
H1573       H  0.60099107  0.54727918  0.70940711     0.16500
H1574       H  0.56309068  0.58534194  0.70856671     0.16500
H1575       H  0.56370968  0.91268252  0.79273217     0.14800
H1576       H  0.60157995  0.95059707  0.79222544     0.14800
H1577       H  0.92656373  0.54954804  0.78723540     0.14800
H1578       H  0.96448851  0.58725890  0.78712495     0.14800
H1579       H  0.99574104  0.98165779  0.77019492     0.28000
H1580       H  0.53236207  0.51764112  0.76893397     0.28000
O1581       O  0.99240272  0.69438672  0.99860659    -0.69900
O1582       O  0.99191291  0.61528639  0.49560478    -0.70100
O1583       O  0.99310930  0.65268765  0.54988362    -0.70000
O1584       O  0.99087452  0.65581242  0.94590662    -0.70000
O1585       O  0.53494494  0.65385614  0.94603300    -0.70000
O1586       O  0.53744560  0.65233757  0.55028902    -0.70000
O1587       O  0.53411498  0.61467657  0.99835756    -0.69900
O1588       O  0.53816675  0.69275308  0.50011190    -0.70100
V1589       V  0.99364621  0.65448367  0.49801367     1.35200
V1590       V  0.53637522  0.65347086  0.49863239     1.35200
C1591       C  0.51625015  0.70662333  0.50106486     0.79300
C1592       C  0.51366727  0.60101904  0.49702835     0.79400
C1593       C  0.51528580  0.65217994  0.56785709     0.79300
C1594       C  0.51263214  0.65548969  0.92877870     0.79200
O1595       O  0.99199138  0.69353929  0.74679045    -0.69900
O1596       O  0.99232959  0.61496866  0.74684205    -0.70100
O1597       O  0.99108978  0.65439302  0.79870309    -0.70000
O1598       O  0.99307466  0.65401807  0.69506237    -0.70000
O1599       O  0.53734690  0.65337084  0.69697412    -0.70000
O1600       O  0.53535051  0.65546826  0.80061118    -0.70000
O1601       O  0.53643499  0.61511580  0.75022731    -0.69900
O1602       O  0.53612974  0.69378987  0.74765304    -0.70100
V1603       V  0.99298949  0.65424084  0.74687014     1.35200
V1604       V  0.53546266  0.65445573  0.74878736     1.35200
C1605       C  0.51386130  0.70711008  0.74779290     0.79300
C1606       C  0.51438624  0.60142098  0.74856776     0.79400
C1607       C  0.51281386  0.65503616  0.81740093     0.79300
C1608       C  0.51540886  0.65340596  0.67879107     0.79200
C1609       C  0.51230280  0.65573433  0.88955060    -0.11400
C1610       C  0.51220766  0.65553625  0.85660219    -0.13000
C1611       C  0.51589228  0.65232900  0.63975430    -0.11400
C1612       C  0.51557237  0.65178947  0.60690997    -0.13000
C1613       C  0.85762266  0.99576857  0.89085566    -0.11400
C1614       C  0.85854135  0.99593084  0.85794798    -0.13000
C1615       C  0.85784065  0.99898496  0.64104588    -0.11400
C1616       C  0.85704701  0.99921753  0.60818730    -0.13000
C1617       C  0.51368246  0.76217893  0.75006568    -0.11400
C1618       C  0.51371224  0.73713561  0.74873217    -0.13000
C1619       C  0.51530816  0.76223423  0.00035557    -0.11400
C1620       C  0.51678389  0.73661590  0.50204476    -0.13000
C1621       C  0.51351212  0.84628131  0.89402394    -0.11400
C1622       C  0.51390321  0.84580368  0.86110277    -0.13000
C1623       C  0.51426995  0.84499331  0.64405196    -0.11400
C1624       C  0.51439581  0.84460775  0.61115376    -0.13000
C1625       C  0.75168869  0.99542460  0.74835457    -0.11400
C1626       C  0.77670601  0.99535531  0.74873912    -0.13000
C1627       C  0.74840706  0.49752197  0.99888265    -0.11400
C1628       C  0.77529651  0.99600932  0.49783425    -0.13000
C1629       C  0.66846191  0.99695939  0.85756668    -0.11400
C1630       C  0.66715679  0.99741348  0.89043571    -0.13000
C1631       C  0.66796556  0.99836276  0.64041970    -0.11400
C1632       C  0.66784446  0.99836214  0.60747395    -0.13000
loop_ 
_geom_bond_atom_site_label_1 
_geom_bond_atom_site_label_2 
_geom_bond_distance 
_geom_bond_site_symmetry_2 
_ccdc_geom_bond_type 
O1          V213   1.921   1_554  S
O1          C623   1.268   1_554  A
O2            V9   1.920       .  S
O2           C12   1.270       .  A
O3            V9   1.899       .  S
O3           C13   1.262       .  A
O4          V213   1.901   1_554  S
O4           C14   1.263       .  A
O5          V214   1.899   1_554  S
O5          C422   1.262   1_545  A
O6           V10   1.903       .  S
O6          C421   1.263   1_545  A
O7          V214   1.921   1_554  S
O7          C624   1.270   1_545  A
O8           V10   1.920       .  S
O8           C11   1.268   1_545  A
V9          O205   1.922       .  S
V9          O208   1.901       .  S
V9          V418   2.085       .  T
V10         O209   1.900       .  S
V10         O211   1.921       .  S
V10         V417   2.085   1_545  T
C11         O613   1.269       .  A
C11         C199   1.467       .  S
C12         O619   1.270       .  A
C12         C108   1.522       .  S
C13         O414   1.263       .  A
C13         C202   1.435       .  S
C14         O413   1.262       .  A
C14         C204   1.436       .  S
O15          V23   1.922       .  S
O15         C433   1.268   1_545  A
O16          V23   1.924       .  S
O16         C434   1.270   1_545  A
O17          V23   1.899       .  S
O17         C435   1.262   1_545  A
O18          V23   1.901       .  S
O18         C436   1.263   1_545  A
O19          V24   1.899       .  S
O19          C28   1.262       .  A
O20          V24   1.901       .  S
O20          C27   1.263       .  A
O21          V24   1.917       .  S
O21          C26   1.270       .  A
O22          V24   1.922       .  S
O22          C25   1.268       .  A
V23         V432   2.085   1_545  T
V24         V431   2.085       .  T
C25         O423   1.269       .  A
C25         C197   1.468       .  S
C26         O424   1.270       .  A
C26         C142   1.520       .  S
C27         O425   1.262       .  A
C27         C201   1.435       .  S
C28         O426   1.263       .  A
C28         C203   1.436       .  S
O29         V241   1.920   1_556  S
O29        C1059   1.267   1_556  A
O30          V37   1.920       .  S
O30         C856   1.270       .  A
O31          V37   1.903       .  S
O31         C857   1.263       .  A
O32         V241   1.901       .  S
O32         C858   1.263       .  A
O33         V242   1.901       .  S
O33          C42   1.263       .  A
O34          V38   1.898       .  S
O34          C41   1.262       .  A
O35         V242   1.922       .  S
O35         C244   1.270       .  A
O36          V38   1.925       .  S
O36          C39   1.269       .  A
V37         O233   1.922       .  S
V37         O236   1.898       .  S
V37         V854   2.085       .  T
V38         O237   1.899       .  S
V38         O239   1.921       .  S
V38         V853   2.085   1_455  T
C39        O1049   1.268   1_455  A
C39         C191   1.470       .  S
C40         O846   1.269   1_455  A
C40         O239   1.270       .  A
C40         C107   1.522       .  S
C41         O847   1.263   1_455  A
C41         C193   1.435       .  S
C42         O848   1.262   1_455  A
C42         C196   1.435       .  S
O43          V51   1.919       .  S
O43         C869   1.267       .  A
O44          V51   1.922       .  S
O44         C870   1.270       .  A
O45          V51   1.900       .  S
O45         C871   1.263       .  A
O46          V51   1.900       .  S
O46         C872   1.262       .  A
O47          V52   1.902       .  S
O47          C56   1.263       .  A
O48          V52   1.899       .  S
O48          C55   1.262       .  A
O49          V52   1.919       .  S
O49          C54   1.270       .  A
O50          V52   1.922       .  S
O50          C53   1.268       .  A
V51         V868   2.085       .  T
V52         V867   2.085   1_455  T
C53         O859   1.268   1_455  A
C53         C189   1.466       .  S
C54         O860   1.269   1_455  A
C54         C139   1.520       .  S
C55         O861   1.263   1_455  A
C55         C195   1.435       .  S
C56         O862   1.262   1_455  A
C56         C194   1.435       .  S
O57         V269   1.923       .  S
O57         C271   1.268       .  A
O58          V65   1.917       .  S
O58          C68   1.270       .  A
O59          V65   1.894       .  S
O59          C69   1.261       .  A
O60         V269   1.903       .  S
O60          C70   1.263       .  A
O61         V270   1.900       .  S
O61         C478   1.262   1_545  A
O62          V66   1.904       .  S
O62         C477   1.264   1_545  A
O63         V270   1.926       .  S
O63         C680   1.270   1_545  A
O64          V66   1.918       .  S
O64         C475   1.267   1_544  A
V65         O261   1.921   1_554  S
V65         O264   1.901   1_554  S
V65         V474   2.085   1_554  T
V66         O265   1.900   1_554  S
V66         O267   1.919   1_554  S
V66         V473   2.085   1_545  T
C67         O261   1.268       .  A
C67         O472   1.268       .  A
C67         C200   1.465       .  S
C68         O675   1.270   1_554  A
C68         C310   1.526       .  S
C69         O470   1.262       .  A
C69         C188   1.430       .  S
C70         O469   1.263       .  A
C70         C185   1.437       .  S
O71          V79   1.919       .  S
O71         C489   1.268   1_545  A
O72          V79   1.923       .  S
O72         C490   1.270   1_545  A
O73          V79   1.899       .  S
O73         C491   1.262   1_545  A
O74          V79   1.901       .  S
O74         C492   1.263   1_545  A
O75          V80   1.900       .  S
O75          C84   1.262       .  A
O76          V80   1.899       .  S
O76          C83   1.262       .  A
O77          V80   1.926       .  S
O77          C82   1.272       .  A
O78          V80   1.926       .  S
O78          C81   1.269       .  A
V79         V488   2.084   1_545  T
V80         V487   2.085       .  T
C81         O479   1.267       .  A
C81         C198   1.468       .  S
C82         O480   1.269       .  A
C82         C140   1.530       .  S
C83         O481   1.261       .  A
C83         C187   1.430       .  S
C84         O482   1.263       .  A
C84         C186   1.437       .  S
N85          C90   1.363   1_556  A
N85          C89   1.363   1_556  A
N85         H117   1.042       .  S
N86          C93   1.359   1_554  A
N86          C94   1.361   1_554  A
N87          C92   1.359       .  A
N87          C91   1.360       .  A
N87         H118   1.042       .  S
N88          C95   1.360       .  A
N88          C96   1.362       .  A
C89          C97   1.388       .  A
C89         C921   1.435   1_554  A
C90          C98   1.388       .  A
C90         C718   1.434   1_545  A
C91          C99   1.388       .  A
C91         C108   1.427       .  A
C92         C107   1.427       .  A
C92         C100   1.388       .  A
C93         C105   1.428       .  A
C93         C101   1.387       .  A
C94         C102   1.386       .  A
C94         C720   1.427   1_546  A
C95         C103   1.387       .  A
C95         C106   1.430       .  A
C96         C104   1.386       .  A
C96         C923   1.429       .  A
C97          C98   1.381       .  A
C97         H109   1.081       .  S
C98         H110   1.081       .  S
C99         C100   1.379       .  A
C99         H111   1.081       .  S
C100        H112   1.081       .  S
C101        C102   1.377       .  A
C101        H113   1.081       .  S
C102        H114   1.081       .  S
C103        C104   1.375       .  A
C103        H115   1.081       .  S
C104        H116   1.081       .  S
C105        C164   1.527       .  S
C105        C905   1.436   1_456  A
C106        C272   1.527       .  S
C106        C702   1.434       .  A
C107        C912   1.429   1_455  A
C108        C706   1.427       .  A
N119        C124   1.361       .  A
N119        C123   1.362       .  A
N119        H151   1.043       .  S
N120        C127   1.358       .  A
N120        C128   1.358       .  A
N121        C126   1.361       .  A
N121        C125   1.363       .  A
N121        H152   1.044       .  S
N122        C129   1.362       .  A
N122        C130   1.362       .  A
C123        C131   1.387       .  A
C123        C955   1.430       .  A
C124        C140   1.431       .  A
C124        C132   1.388       .  A
C125        C133   1.387       .  A
C125        C550   1.431       .  A
C126        C141   1.433       .  A
C126        C134   1.389       .  A
C127        C139   1.425       .  A
C127        C135   1.387       .  A
C128        C142   1.424       .  A
C128        C136   1.387       .  A
C129        C137   1.386       .  A
C129        C548   1.432       .  A
C130        C138   1.388       .  A
C130        C957   1.433       .  A
C131        C132   1.380       .  A
C131        H143   1.081       .  S
C132        H144   1.081       .  S
C133        C134   1.381       .  A
C133        H145   1.081       .  S
C134        H146   1.081       .  S
C135        C136   1.375       .  A
C135        H147   1.081       .  S
C136        H148   1.081       .  S
C137        C138   1.377       .  A
C137        H149   1.081       .  S
C138        H150   1.081       .  S
C139        C939   1.429   1_455  A
C140        C537   1.435       .  A
C141        C178   1.528       .  S
C141        C946   1.434   1_455  A
C142        C533   1.429       .  A
O153        V365   1.920       .  S
O153       C1183   1.267       .  A
O154        V161   1.925       .  S
O154        C980   1.270       .  A
O155        V161   1.904   1_554  S
O155        C981   1.264       .  A
O156        V365   1.901       .  S
O156        C982   1.263       .  A
O157        V366   1.901       .  S
O157        C166   1.263       .  A
O158        V162   1.898   1_554  S
O158        C165   1.262       .  A
O159        V366   1.922       .  S
O159        C368   1.271       .  A
O160        V162   1.926       .  S
O160        C163   1.269       .  A
V161        O357   1.923       .  S
V161        O360   1.900       .  S
V161        V978   2.085       .  T
V162        O361   1.900       .  S
V162        O363   1.924       .  S
V162        V977   2.085   1_455  T
C163       O1173   1.268   1_455  A
C163        C192   1.469       .  S
C164        O970   1.269   1_455  A
C164        O363   1.272       .  A
C165        O971   1.264   1_455  A
C165        C184   1.437       .  S
C166        O972   1.263   1_455  A
C166        C181   1.437       .  S
O167        V175   1.921       .  S
O167        C993   1.268       .  A
O168        V175   1.924       .  S
O168        C994   1.271       .  A
O169        V175   1.900       .  S
O169        C995   1.262       .  A
O170        V175   1.899       .  S
O170        C996   1.262       .  A
O171        V176   1.904       .  S
O171        C180   1.264       .  A
O172        V176   1.901       .  S
O172        C179   1.263       .  A
O173        V176   1.922       .  S
O173        C178   1.271       .  A
O174        V176   1.923       .  S
O174        C177   1.268       .  A
V175        V992   2.085       .  T
V176        V991   2.085   1_455  T
C177        O983   1.268   1_455  A
C177        C190   1.467       .  S
C178        O984   1.270   1_455  A
C179        O985   1.263   1_455  A
C179        C182   1.437       .  S
C180        O986   1.262   1_455  A
C180        C183   1.437       .  S
C181        C182   1.207       .  T
C183        C184   1.207       .  T
C185        C186   1.207       .  T
C187        C188   1.203       .  T
C189        C190   1.224       .  T
C191        C396   1.226       .  T
C192        C395   1.226   1_556  T
C193        C194   1.206       .  T
C195        C196   1.206       .  T
C197        C198   1.225       .  T
C199        C812   1.224       .  T
C200        C811   1.223       .  T
C201        C202   1.206       .  T
C203        C204   1.206       .  T
O205        C419   1.268       .  A
O206        V213   1.920       .  S
O206        C216   1.270       .  A
O207        V213   1.899       .  S
O207        C217   1.262       .  A
O208        C218   1.263       .  A
O209        C626   1.262   1_545  A
O210        V214   1.902       .  S
O210        C625   1.263   1_545  A
O211        C420   1.269   1_545  A
O212        V214   1.920       .  S
O212        C215   1.268   1_545  A
V213        V622   2.085       .  T
V214        V621   2.086   1_545  T
C215        O409   1.267       .  A
C215        C403   1.464       .  S
C216        O415   1.270       .  A
C216        C312   1.523       .  S
C217        O618   1.263       .  A
C217        C406   1.435       .  S
C218        O617   1.262       .  A
C218        C408   1.435       .  S
O219        V227   1.921       .  S
O219        C637   1.268   1_545  A
O220        V227   1.921       .  S
O220        C638   1.270   1_545  A
O221        V227   1.897       .  S
O221        C639   1.261   1_545  A
O222        V227   1.900       .  S
O222        C640   1.262   1_545  A
O223        V228   1.899       .  S
O223        C232   1.262       .  A
O224        V228   1.901       .  S
O224        C231   1.263       .  A
O225        V228   1.921       .  S
O225        C230   1.271       .  A
O226        V228   1.924       .  S
O226        C229   1.269       .  A
V227        V636   2.086   1_545  T
V228        V635   2.085       .  T
C229        O627   1.268       .  A
C229        C401   1.467       .  S
C230        O628   1.270       .  A
C230        C346   1.524       .  S
C231        O629   1.262       .  A
C231        C405   1.434       .  S
C232        O630   1.263       .  A
C232        C407   1.435       .  S
O233        C855   1.268       .  A
O234        V241   1.918       .  S
O234       C1060   1.269       .  A
O235        V241   1.903   1_556  S
O235       C1061   1.264       .  A
O236       C1062   1.262       .  A
O237        C246   1.262       .  A
O238        V242   1.898   1_556  S
O238        C245   1.262       .  A
O240        V242   1.924       .  S
O240        C243   1.269       .  A
V241       V1058   2.084       .  T
V242       V1057   2.085   1_455  T
C243        O845   1.268   1_455  A
C243        C395   1.469       .  S
C244       O1050   1.269   1_455  A
C244        C311   1.524       .  S
C245       O1051   1.263   1_455  A
C245        C397   1.436       .  S
C246       O1052   1.262   1_455  A
C246        C400   1.433       .  S
O247        V255   1.923       .  S
O247       C1073   1.269       .  A
O248        V255   1.920       .  S
O248       C1074   1.270       .  A
O249        V255   1.898       .  S
O249       C1075   1.262       .  A
O250        V255   1.896       .  S
O250       C1076   1.261       .  A
O251        V256   1.902       .  S
O251        C260   1.263       .  A
O252        V256   1.898       .  S
O252        C259   1.262       .  A
O253        V256   1.919       .  S
O253        C258   1.269       .  A
O254        V256   1.920       .  S
O254        C257   1.268       .  A
V255       V1072   2.086       .  T
V256       V1071   2.085   1_455  T
C257       O1063   1.269   1_455  A
C257        C393   1.467       .  S
C258       O1064   1.270   1_455  A
C258        C343   1.523       .  S
C259       O1065   1.262   1_455  A
C259        C399   1.433       .  S
C260       O1066   1.262   1_455  A
C260        C398   1.436       .  S
O262        V269   1.919       .  S
O262        C272   1.270       .  A
O263        V269   1.900       .  S
O263        C273   1.262       .  A
O264        C274   1.263       .  A
O265        C682   1.262   1_545  A
O266        V270   1.901       .  S
O266        C681   1.263   1_545  A
O267        C476   1.268   1_546  A
O268        V270   1.923       .  S
O268        C679   1.268   1_545  A
V269        V678   2.084       .  T
V270        V677   2.085   1_545  T
C271        O676   1.268       .  A
C271        C404   1.467       .  S
C272        O471   1.270       .  A
C273        O674   1.264       .  A
C273        C392   1.438       .  S
C274        O673   1.262       .  A
C274        C389   1.434       .  S
O275        V283   1.920       .  S
O275        C693   1.268   1_545  A
O276        V283   1.923       .  S
O276        C694   1.270   1_545  A
O277        V283   1.898       .  S
O277        C695   1.262   1_545  A
O278        V283   1.901       .  S
O278        C696   1.263   1_545  A
O279        V284   1.898       .  S
O279        C288   1.262       .  A
O280        V284   1.903       .  S
O280        C287   1.263       .  A
O281        V284   1.920       .  S
O281        C286   1.270       .  A
O282        V284   1.922       .  S
O282        C285   1.268       .  A
V283        V692   2.084   1_545  T
V284        V691   2.085       .  T
C285        O683   1.268       .  A
C285        C402   1.467       .  S
C286        O684   1.270       .  A
C286        C344   1.525       .  S
C287        O685   1.262       .  A
C287        C391   1.438       .  S
C288        O686   1.263       .  A
C288        C390   1.434       .  S
N289        C294   1.362       .  A
N289        C293   1.362       .  A
N289        H321   1.044       .  S
N290        C297   1.361       .  A
N290        C298   1.362       .  A
N291        C296   1.360       .  A
N291        C295   1.360       .  A
N291        H322   1.043   1_554  S
N292        C299   1.361   1_554  A
N292        C300   1.362   1_554  A
C293        C301   1.389       .  A
C293       C1125   1.435       .  A
C294        C514   1.433   1_545  A
C294        C302   1.387       .  A
C295        C303   1.388       .  A
C295        C312   1.429   1_554  A
C296        C311   1.427       .  A
C296        C304   1.387       .  A
C297        C309   1.431       .  A
C297        C305   1.387       .  A
C298        C516   1.429   1_545  A
C298        C306   1.386       .  A
C299        C307   1.387       .  A
C299        C310   1.431   1_556  A
C300        C308   1.386       .  A
C300       C1127   1.429   1_556  A
C301        C302   1.382       .  A
C301        H313   1.081       .  S
C302        H314   1.081       .  S
C303        C304   1.379       .  A
C303        H315   1.081       .  S
C304        H316   1.081       .  S
C305        C306   1.376       .  A
C305        H317   1.081       .  S
C306        H318   1.081       .  S
C307        C308   1.374       .  A
C307        H319   1.081       .  S
C308        H320   1.081       .  S
C309        C368   1.528       .  S
C309       C1109   1.435   1_455  A
C310        C498   1.433       .  A
C311       C1116   1.429   1_454  A
C312        C502   1.428       .  A
N323        C328   1.360       .  A
N323        C327   1.361       .  A
N323        H355   1.043       .  S
N324        C331   1.360       .  A
N324        C332   1.359       .  A
N325        C330   1.360       .  A
N325        C329   1.361       .  A
N325        H356   1.044       .  S
N326        C333   1.363       .  A
N326        C334   1.361       .  A
C327        C335   1.387       .  A
C327       C1159   1.428       .  A
C328        C344   1.429       .  A
C328        C336   1.388       .  A
C329        C337   1.388       .  A
C329        C754   1.430   1_545  A
C330        C345   1.430       .  A
C330        C338   1.388       .  A
C331        C343   1.428       .  A
C331        C339   1.387       .  A
C332        C346   1.428       .  A
C332        C340   1.387       .  A
C333        C341   1.386       .  A
C333        C752   1.431   1_545  A
C334        C342   1.388       .  A
C334       C1161   1.432       .  A
C335        C336   1.378       .  A
C335        H347   1.081       .  S
C336        H348   1.081       .  S
C337        C338   1.381       .  A
C337        H349   1.081       .  S
C338        H350   1.081       .  S
C339        C340   1.376       .  A
C339        H351   1.081       .  S
C340        H352   1.081       .  S
C341        C342   1.376       .  A
C341        H353   1.080       .  S
C342        H354   1.081       .  S
C343       C1143   1.429   1_455  A
C344        C741   1.430       .  A
C345        C382   1.524       .  S
C345       C1150   1.431   1_455  A
C346        C737   1.432       .  A
O357        C979   1.269       .  A
O358        V365   1.920       .  S
O358       C1184   1.269       .  A
O359        V365   1.901       .  S
O359       C1185   1.263       .  A
O360       C1186   1.262       .  A
O361        C370   1.262       .  A
O362        V366   1.895       .  S
O362        C369   1.261       .  A
O364        V366   1.925       .  S
O364        C367   1.269       .  A
V365       V1182   2.085       .  T
V366       V1181   2.085   1_455  T
C367        O969   1.269   1_455  A
C367        C396   1.470       .  S
C368       O1174   1.270   1_455  A
C369       O1175   1.263   1_455  A
C369        C388   1.431       .  S
C370       O1176   1.262   1_455  A
C370        C385   1.434       .  S
O371        V379   1.920       .  S
O371       C1197   1.267       .  A
O372        V379   1.917       .  S
O372       C1198   1.269       .  A
O373        V379   1.901       .  S
O373       C1199   1.263       .  A
O374        V379   1.897       .  S
O374       C1200   1.262       .  A
O375        V380   1.900       .  S
O375        C384   1.262       .  A
O376        V380   1.897       .  S
O376        C383   1.261       .  A
O377        V380   1.925       .  S
O377        C382   1.271       .  A
O378        V380   1.925       .  S
O378        C381   1.269       .  A
V379       V1196   2.085       .  T
V380       V1195   2.085   1_455  T
C381       O1187   1.267   1_455  A
C381        C394   1.467       .  S
C382       O1188   1.269   1_455  A
C383       O1189   1.263   1_455  A
C383        C386   1.434       .  S
C384       O1190   1.261   1_455  A
C384        C387   1.432       .  S
C385        C386   1.205       .  T
C387        C388   1.204       .  T
C389        C390   1.205       .  T
C391        C392   1.207       .  T
C393        C394   1.225       .  T
C397        C398   1.206       .  T
C399        C400   1.205       .  T
C401        C402   1.225       .  T
C403        C608   1.223       .  T
C404        C607   1.225       .  T
C405        C406   1.206       .  T
C407        C408   1.206       .  T
O409        V621   1.919       .  S
O410        V417   1.921       .  S
O410        C420   1.271       .  A
O411        V417   1.899       .  S
O411        C421   1.262       .  A
O412        V621   1.900   1_554  S
O412        C422   1.262       .  A
O413        V622   1.900   1_554  S
O414        V418   1.901       .  S
O415        V622   1.922       .  S
O416        V418   1.921       .  S
O416        C419   1.268       .  A
V417        O613   1.923       .  S
V417        O616   1.900       .  S
V418        O617   1.899       .  S
V418        O619   1.921       .  S
C419        C607   1.467       .  S
C420        C516   1.523       .  S
C421        C610   1.436       .  S
C422        C612   1.434       .  S
O423        V431   1.923       .  S
O424        V431   1.922       .  S
O425        V431   1.898       .  S
O426        V431   1.903       .  S
O427        V432   1.898       .  S
O427        C436   1.262       .  A
O428        V432   1.902       .  S
O428        C435   1.263       .  A
O429        V432   1.916       .  S
O429        C434   1.270       .  A
O430        V432   1.921       .  S
O430        C433   1.268       .  A
C433        C605   1.466       .  S
C434        C550   1.523   1_565  S
C435        C609   1.436       .  S
C436        C611   1.434       .  S
O437        V649   1.920       .  S
O437       C1467   1.268       .  A
O438        V445   1.918       .  S
O438       C1264   1.269       .  A
O439        V445   1.903       .  S
O439       C1265   1.263       .  A
O440        V649   1.898       .  S
O440       C1266   1.262       .  A
O441        V650   1.901       .  S
O441        C450   1.263       .  A
O442        V446   1.900       .  S
O442        C449   1.262       .  A
O443        V650   1.922       .  S
O443        C652   1.270       .  A
O444        V446   1.923       .  S
O444        C447   1.268       .  A
V445        O641   1.921       .  S
V445        O644   1.899       .  S
V445       V1262   2.085       .  T
V446        O645   1.900       .  S
V446        O647   1.922       .  S
V446       V1261   2.085   1_455  T
C447       O1457   1.268   1_455  A
C447        C599   1.466       .  S
C448       O1254   1.269   1_455  A
C448        O647   1.270       .  A
C448        C515   1.524       .  S
C449       O1255   1.263   1_455  A
C449        C601   1.437       .  S
C450       O1256   1.261   1_455  A
C450        C604   1.433       .  S
O451        V459   1.921       .  S
O451       C1277   1.268       .  A
O452        V459   1.922       .  S
O452       C1278   1.270       .  A
O453        V459   1.900       .  S
O453       C1279   1.263       .  A
O454        V459   1.900       .  S
O454       C1280   1.262       .  A
O455        V460   1.902       .  S
O455        C464   1.263       .  A
O456        V460   1.896       .  S
O456        C463   1.261       .  A
O457        V460   1.918       .  S
O457        C462   1.270       .  A
O458        V460   1.921       .  S
O458        C461   1.268       .  A
V459       V1276   2.085       .  T
V460       V1275   2.085   1_455  T
C461       O1267   1.268   1_455  A
C461        C597   1.467       .  S
C462       O1268   1.270   1_455  A
C462        C547   1.522       .  S
C463       O1269   1.263   1_455  A
C463        C603   1.433       .  S
C464       O1270   1.263   1_455  A
C464        C602   1.437       .  S
O465        V677   1.922       .  S
O465        C679   1.268       .  A
O466        V473   1.921       .  S
O466        C476   1.271       .  A
O467        V473   1.898       .  S
O467        C477   1.261       .  A
O468        V677   1.900       .  S
O468        C478   1.263       .  A
O469        V678   1.901       .  S
O470        V474   1.899   1_554  S
O471        V678   1.925       .  S
O472        V474   1.921       .  S
V473        O669   1.923   1_554  S
V473        O672   1.901   1_554  S
V474        O673   1.898       .  S
V474        O675   1.923       .  S
C475        O669   1.269       .  A
C475        C608   1.464       .  S
C476        C718   1.525       .  S
C477        C596   1.436       .  S
C478        C593   1.435       .  S
O479        V487   1.920       .  S
O480        V487   1.922       .  S
O481        V487   1.896       .  S
O482        V487   1.901       .  S
O483        V488   1.899       .  S
O483        C492   1.262       .  A
O484        V488   1.903       .  S
O484        C491   1.263       .  A
O485        V488   1.920       .  S
O485        C490   1.271       .  A
O486        V488   1.923       .  S
O486        C489   1.268       .  A
C489        C606   1.465       .  S
C490        C548   1.525   1_565  S
C491        C595   1.436       .  S
C492        C594   1.435       .  S
N493        C498   1.361   1_556  A
N493        C497   1.362   1_556  A
N493        H525   1.045       .  S
N494        C501   1.360   1_554  A
N494        C502   1.361   1_554  A
N495        C500   1.360       .  A
N495        C499   1.360       .  A
N495        H526   1.042       .  S
N496        C503   1.360       .  A
N496        C504   1.362       .  A
C497        C505   1.389       .  A
C497       C1329   1.434   1_554  A
C498        C506   1.388       .  A
C499        C507   1.388       .  A
C499        C516   1.428       .  A
C500        C515   1.428       .  A
C500        C508   1.388       .  A
C501        C513   1.430       .  A
C501        C509   1.387       .  A
C502        C510   1.386       .  A
C503        C511   1.387       .  A
C503        C514   1.430       .  A
C504        C512   1.385       .  A
C504       C1331   1.428       .  A
C505        C506   1.381       .  A
C505        H517   1.081       .  S
C506        H518   1.081       .  S
C507        C508   1.380       .  A
C507        H519   1.081       .  S
C508        H520   1.081       .  S
C509        C510   1.377       .  A
C509        H521   1.081       .  S
C510        H522   1.081       .  S
C511        C512   1.374       .  A
C511        H523   1.081       .  S
C512        H524   1.081       .  S
C513        C572   1.527       .  S
C513       C1313   1.435   1_456  A
C514        C680   1.527       .  S
C515       C1320   1.430   1_455  A
N527        C532   1.360       .  A
N527        C531   1.361       .  A
N527        H559   1.043       .  S
N528        C535   1.359       .  A
N528        C536   1.358       .  A
N529        C534   1.360       .  A
N529        C533   1.362       .  A
N529        H560   1.044       .  S
N530        C537   1.363       .  A
N530        C538   1.363       .  A
C531        C539   1.386       .  A
C531       C1363   1.428       .  A
C532        C548   1.429   1_565  A
C532        C540   1.388       .  A
C533        C541   1.386       .  A
C534        C549   1.431       .  A
C534        C542   1.388       .  A
C535        C547   1.425       .  A
C535        C543   1.386       .  A
C536        C550   1.426   1_565  A
C536        C544   1.387       .  A
C537        C545   1.388       .  A
C538        C546   1.387       .  A
C538       C1365   1.434       .  A
C539        C540   1.378       .  A
C539        H551   1.081       .  S
C540        H552   1.081       .  S
C541        C542   1.379       .  A
C541        H553   1.081       .  S
C542        H554   1.081       .  S
C543        C544   1.374       .  A
C543        H555   1.081       .  S
C544        H556   1.081       .  S
C545        C546   1.377       .  A
C545        H557   1.080       .  S
C546        H558   1.080       .  S
C547       C1347   1.428   1_455  A
C549        C586   1.527       .  S
C549       C1354   1.433   1_455  A
O561        V773   1.921       .  S
O561       C1591   1.268       .  A
O562        V569   1.923       .  S
O562       C1388   1.270       .  A
O563        V569   1.903   1_554  S
O563       C1389   1.263       .  A
O564        V773   1.901       .  S
O564       C1390   1.263       .  A
O565        V774   1.900       .  S
O565        C574   1.262       .  A
O566        V570   1.900   1_554  S
O566        C573   1.262       .  A
O567        V774   1.920       .  S
O567        C776   1.271       .  A
O568        V570   1.922       .  S
O568        C571   1.268       .  A
V569        O765   1.922   1_556  S
V569        O768   1.900       .  S
V569       V1386   2.085       .  T
V570        O769   1.902       .  S
V570        O771   1.921       .  S
V570       V1385   2.085   1_455  T
C571       O1581   1.269   1_455  A
C571        C600   1.467       .  S
C572       O1378   1.270   1_455  A
C572        O771   1.270       .  A
C573       O1379   1.263   1_455  A
C573        C592   1.437       .  S
C574       O1380   1.263   1_455  A
C574        C589   1.436       .  S
O575        V583   1.919       .  S
O575       C1401   1.267       .  A
O576        V583   1.921       .  S
O576       C1402   1.269       .  A
O577        V583   1.901       .  S
O577       C1403   1.263       .  A
O578        V583   1.901       .  S
O578       C1404   1.263       .  A
O579        V584   1.903       .  S
O579        C588   1.263       .  A
O580        V584   1.898       .  S
O580        C587   1.262       .  A
O581        V584   1.923       .  S
O581        C586   1.271       .  A
O582        V584   1.924       .  S
O582        C585   1.269       .  A
V583       V1400   2.085       .  T
V584       V1399   2.085   1_455  T
C585       O1391   1.267   1_455  A
C585        C598   1.467       .  S
C586       O1392   1.269   1_455  A
C587       O1393   1.263   1_455  A
C587        C590   1.435       .  S
C588       O1394   1.262   1_455  A
C588        C591   1.437       .  S
C589        C590   1.206       .  T
C591        C592   1.207       .  T
C593        C594   1.206       .  T
C595        C596   1.206       .  T
C597        C598   1.224       .  T
C599        C804   1.224       .  T
C600        C803   1.225       .  T
C601        C602   1.207       .  T
C603        C604   1.205       .  T
C605        C606   1.224       .  T
C609        C610   1.206       .  T
C611        C612   1.205       .  T
O614        V621   1.919       .  S
O614        C624   1.270   1_556  A
O615        V621   1.898       .  S
O615        C625   1.262       .  A
O616        C626   1.262       .  A
O618        V622   1.901       .  S
O620        V622   1.920       .  S
O620        C623   1.268       .  A
C623        C811   1.465       .  S
C624        C720   1.521       .  S
C625        C814   1.434       .  S
C626        C816   1.435       .  S
O627        V635   1.921       .  S
O628        V635   1.923       .  S
O629        V635   1.898       .  S
O630        V635   1.902       .  S
O631        V636   1.900       .  S
O631        C640   1.262       .  A
O632        V636   1.902       .  S
O632        C639   1.263       .  A
O633        V636   1.918       .  S
O633        C638   1.270       .  A
O634        V636   1.921       .  S
O634        C637   1.268       .  A
C637        C809   1.466       .  S
C638        C754   1.522       .  S
C639        C813   1.434       .  S
C640        C815   1.435       .  S
O641       C1263   1.268       .  A
O642        V649   1.918       .  S
O642       C1468   1.269       .  A
O643        V649   1.902   1_556  S
O643       C1469   1.263       .  A
O644       C1470   1.262       .  A
O645        C654   1.263       .  A
O646        V650   1.900   1_556  S
O646        C653   1.262       .  A
O648        V650   1.924       .  S
O648        C651   1.269       .  A
V649       V1466   2.085       .  T
V650       V1465   2.085   1_455  T
C651       O1253   1.267   1_454  A
C651        C803   1.467   1_554  S
C652       O1458   1.269   1_455  A
C652        C719   1.521       .  S
C653       O1459   1.263   1_455  A
C653        C805   1.436       .  S
C654       O1460   1.262   1_455  A
C654        C808   1.433       .  S
O655        V663   1.923       .  S
O655       C1481   1.268       .  A
O656        V663   1.918       .  S
O656       C1482   1.269       .  A
O657        V663   1.900       .  S
O657       C1483   1.262       .  A
O658        V663   1.898       .  S
O658       C1484   1.262       .  A
O659        V664   1.902       .  S
O659        C668   1.263       .  A
O660        V664   1.897       .  S
O660        C667   1.262       .  A
O661        V664   1.919       .  S
O661        C666   1.270       .  A
O662        V664   1.922       .  S
O662        C665   1.268       .  A
V663       V1480   2.085       .  T
V664       V1479   2.086   1_455  T
C665       O1471   1.269   1_455  A
C665        C801   1.468       .  S
C666       O1472   1.270   1_455  A
C666        C751   1.521       .  S
C667       O1473   1.263   1_455  A
C667        C807   1.433       .  S
C668       O1474   1.262   1_455  A
C668        C806   1.436       .  S
O670        V677   1.918       .  S
O670        C680   1.270       .  A
O671        V677   1.897       .  S
O671        C681   1.261       .  A
O672        C682   1.262       .  A
O674        V678   1.904       .  S
O676        V678   1.922       .  S
C679        C812   1.467       .  S
C681        C800   1.433       .  S
C682        C797   1.435       .  S
O683        V691   1.922       .  S
O684        V691   1.922       .  S
O685        V691   1.900       .  S
O686        V691   1.902       .  S
O687        V692   1.898       .  S
O687        C696   1.262       .  A
O688        V692   1.900       .  S
O688        C695   1.263       .  A
O689        V692   1.923       .  S
O689        C694   1.271       .  A
O690        V692   1.923       .  S
O690        C693   1.269       .  A
C693        C810   1.466       .  S
C694        C752   1.527       .  S
C695        C799   1.433       .  S
C696        C798   1.435       .  S
N697        C702   1.363       .  A
N697        C701   1.363       .  A
N697        H729   1.041       .  S
N698        C705   1.359       .  A
N698        C706   1.361       .  A
N699        C704   1.358       .  A
N699        C703   1.359       .  A
N699        H730   1.043   1_554  S
N700        C707   1.360   1_554  A
N700        C708   1.361   1_554  A
C701        C709   1.388       .  A
C701       C1533   1.435       .  A
C702        C710   1.388       .  A
C703        C711   1.388       .  A
C703        C720   1.427       .  A
C704        C719   1.426       .  A
C704        C712   1.387       .  A
C705        C717   1.428       .  A
C705        C713   1.387       .  A
C706        C714   1.386       .  A
C707        C715   1.387       .  A
C707        C718   1.428   1_556  A
C708        C716   1.386       .  A
C708       C1535   1.427   1_556  A
C709        C710   1.382       .  A
C709        H721   1.081       .  S
C710        H722   1.081       .  S
C711        C712   1.380       .  A
C711        H723   1.081       .  S
C712        H724   1.082       .  S
C713        C714   1.376       .  A
C713        H725   1.081       .  S
C714        H726   1.081       .  S
C715        C716   1.374       .  A
C715        H727   1.081       .  S
C716        H728   1.081       .  S
C717        C776   1.524       .  S
C717       C1517   1.434   1_455  A
C719       C1524   1.428   1_454  A
N731        C736   1.361       .  A
N731        C735   1.361       .  A
N731        H763   1.044       .  S
N732        C739   1.359       .  A
N732        C740   1.359       .  A
N733        C738   1.362       .  A
N733        C737   1.363       .  A
N733        H764   1.043       .  S
N734        C741   1.362       .  A
N734        C742   1.361       .  A
C735        C743   1.387       .  A
C735       C1567   1.429       .  A
C736        C752   1.429       .  A
C736        C744   1.387       .  A
C737        C745   1.387       .  A
C738        C753   1.433       .  A
C738        C746   1.388       .  A
C739        C751   1.426       .  A
C739        C747   1.387       .  A
C740        C754   1.427       .  A
C740        C748   1.387       .  A
C741        C749   1.386       .  A
C742        C750   1.387       .  A
C742       C1569   1.431       .  A
C743        C744   1.378       .  A
C743        H755   1.081       .  S
C744        H756   1.081       .  S
C745        C746   1.381       .  A
C745        H757   1.081       .  S
C746        H758   1.081       .  S
C747        C748   1.376       .  A
C747        H759   1.081       .  S
C748        H760   1.081       .  S
C749        C750   1.376       .  A
C749        H761   1.081       .  S
C750        H762   1.081       .  S
C751       C1551   1.428   1_455  A
C753        C790   1.526       .  S
C753       C1558   1.431   1_455  A
O765       C1387   1.268   1_554  A
O766        V773   1.924       .  S
O766       C1592   1.269       .  A
O767        V773   1.900       .  S
O767       C1593   1.263       .  A
O768       C1594   1.262       .  A
O769        C778   1.263       .  A
O770        V774   1.896       .  S
O770        C777   1.261       .  A
O772        V774   1.922       .  S
O772        C775   1.268       .  A
V773       V1590   2.085       .  T
V774       V1589   2.085   1_455  T
C775       O1377   1.268   1_455  A
C775        C804   1.466       .  S
C776       O1582   1.269   1_455  A
C777       O1583   1.263   1_455  A
C777        C796   1.434       .  S
C778       O1584   1.261   1_455  A
C778        C793   1.434       .  S
O779        V787   1.923       .  S
O779       C1605   1.268       .  A
O780        V787   1.920       .  S
O780       C1606   1.270       .  A
O781        V787   1.901       .  S
O781       C1607   1.263       .  A
O782        V787   1.895       .  S
O782       C1608   1.261       .  A
O783        V788   1.902       .  S
O783        C792   1.263       .  A
O784        V788   1.896       .  S
O784        C791   1.261       .  A
O785        V788   1.924       .  S
O785        C790   1.271       .  A
O786        V788   1.924       .  S
O786        C789   1.269       .  A
V787       V1604   2.085       .  T
V788       V1603   2.085   1_455  T
C789       O1595   1.268   1_455  A
C789        C802   1.468       .  S
C790       O1596   1.270   1_455  A
C791       O1597   1.263   1_455  A
C791        C794   1.433       .  S
C792       O1598   1.261   1_455  A
C792        C795   1.434       .  S
C793        C794   1.205       .  T
C795        C796   1.205       .  T
C797        C798   1.206       .  T
C799        C800   1.205       .  T
C801        C802   1.225       .  T
C805        C806   1.207       .  T
C807        C808   1.205       .  T
C809        C810   1.224       .  T
C813        C814   1.205       .  T
C815        C816   1.206       .  T
O817       V1029   1.921   1_554  S
O817       C1439   1.268   1_554  A
O818        V825   1.919       .  S
O818        C828   1.270       .  A
O819        V825   1.899       .  S
O819        C829   1.262       .  A
O820       V1029   1.901   1_554  S
O820        C830   1.263       .  A
O821       V1030   1.899   1_554  S
O821       C1238   1.262   1_545  A
O822        V826   1.902       .  S
O822       C1237   1.263   1_545  A
O823       V1030   1.924       .  S
O823       C1440   1.271   1_545  A
O824        V826   1.919       .  S
O824        C827   1.267   1_545  A
V825       O1021   1.921       .  S
V825       O1024   1.900       .  S
V825       V1234   2.085       .  T
V826       O1025   1.901       .  S
V826       O1027   1.917       .  S
V826       V1233   2.085   1_545  T
C827       O1429   1.269       .  A
C827       C1015   1.466       .  S
C828       O1435   1.269       .  A
C828        C924   1.521       .  S
C829       O1230   1.263       .  A
C829       C1018   1.435       .  S
C830       O1229   1.262       .  A
C830       C1020   1.436       .  S
O831        V839   1.923       .  S
O831       C1249   1.268   1_545  A
O832        V839   1.923       .  S
O832       C1250   1.270   1_545  A
O833        V839   1.898       .  S
O833       C1251   1.262   1_545  A
O834        V839   1.903       .  S
O834       C1252   1.263   1_545  A
O835        V840   1.900       .  S
O835        C844   1.262       .  A
O836        V840   1.901       .  S
O836        C843   1.263       .  A
O837        V840   1.917       .  S
O837        C842   1.269       .  A
O838        V840   1.920       .  S
O838        C841   1.267       .  A
V839       V1248   2.084   1_545  T
V840       V1247   2.085       .  T
C841       O1239   1.269       .  A
C841       C1013   1.467       .  S
C842       O1240   1.270       .  A
C842        C958   1.521       .  S
C843       O1241   1.262       .  A
C843       C1017   1.435       .  S
C844       O1242   1.263       .  A
C844       C1019   1.436       .  S
O845       V1057   1.922       .  S
O846        V853   1.919       .  S
O847        V853   1.902       .  S
O848       V1057   1.899       .  S
O849       V1058   1.899       .  S
O849        C858   1.262       .  A
O850        V854   1.899       .  S
O850        C857   1.262       .  A
O851       V1058   1.924       .  S
O851       C1060   1.271       .  A
O852        V854   1.922       .  S
O852        C855   1.268       .  A
V853       O1049   1.922       .  S
V853       O1052   1.898       .  S
V854       O1053   1.900       .  S
V854       O1055   1.920       .  S
C855       C1007   1.467       .  S
C856       O1055   1.270       .  A
C856        C923   1.523       .  S
C857       C1009   1.437       .  S
C858       C1012   1.435       .  S
O859        V867   1.920       .  S
O860        V867   1.920       .  S
O861        V867   1.901       .  S
O862        V867   1.899       .  S
O863        V868   1.904       .  S
O863        C872   1.263       .  A
O864        V868   1.900       .  S
O864        C871   1.262       .  A
O865        V868   1.919       .  S
O865        C870   1.270       .  A
O866        V868   1.921       .  S
O866        C869   1.268       .  A
C869       C1005   1.464       .  S
C870        C955   1.523       .  S
C871       C1011   1.435       .  S
C872       C1010   1.438       .  S
O873       V1085   1.921       .  S
O873       C1087   1.268       .  A
O874        V881   1.920       .  S
O874        C884   1.271       .  A
O875        V881   1.894       .  S
O875        C885   1.261       .  A
O876       V1085   1.902       .  S
O876        C886   1.263       .  A
O877       V1086   1.900       .  S
O877       C1294   1.262   1_545  A
O878        V882   1.904   1_554  S
O878       C1293   1.264   1_545  A
O879       V1086   1.927       .  S
O879       C1496   1.271   1_545  A
O880        V882   1.919       .  S
O880       C1291   1.267   1_545  A
V881       O1077   1.923   1_554  S
V881       O1080   1.900   1_554  S
V881       V1290   2.084   1_554  T
V882       O1081   1.900       .  S
V882       O1083   1.921       .  S
V882       V1289   2.084   1_545  T
C883       O1077   1.268       .  A
C883       O1288   1.268   1_556  A
C883       C1016   1.466       .  S
C884       O1491   1.270   1_554  A
C884       C1126   1.527       .  S
C885       O1286   1.263       .  A
C885       C1004   1.432       .  S
C886       O1285   1.262       .  A
C886       C1001   1.436       .  S
O887        V895   1.922       .  S
O887       C1305   1.268   1_545  A
O888        V895   1.924       .  S
O888       C1306   1.270   1_545  A
O889        V895   1.900       .  S
O889       C1307   1.262   1_545  A
O890        V895   1.902       .  S
O890       C1308   1.263   1_545  A
O891        V896   1.899       .  S
O891        C900   1.262       .  A
O892        V896   1.900       .  S
O892        C899   1.263       .  A
O893        V896   1.925       .  S
O893        C898   1.272       .  A
O894        V896   1.925       .  S
O894        C897   1.269       .  A
V895       V1304   2.084   1_545  T
V896       V1303   2.084       .  T
C897       O1295   1.267       .  A
C897       C1014   1.467       .  S
C898       O1296   1.269       .  A
C898        C956   1.527       .  S
C899       O1297   1.261       .  A
C899       C1003   1.432       .  S
C900       O1298   1.263       .  A
C900       C1002   1.436       .  S
N901        C906   1.363   1_556  A
N901        C905   1.364   1_556  A
N901        H933   1.042       .  S
N902        C909   1.360   1_554  A
N902        C910   1.361   1_554  A
N903        C908   1.360       .  A
N903        C907   1.360       .  A
N903        H934   1.040       .  S
N904        C911   1.361       .  A
N904        C912   1.361       .  A
C905        C913   1.388       .  A
C906       C1534   1.435   1_545  A
C906        C914   1.387       .  A
C907        C915   1.387       .  A
C907        C924   1.427       .  A
C908        C923   1.428       .  A
C908        C916   1.388       .  A
C909        C921   1.430       .  A
C909        C917   1.387       .  A
C910       C1536   1.428   1_545  A
C910        C918   1.386       .  A
C911        C919   1.387       .  A
C911        C922   1.430       .  A
C912        C920   1.386       .  A
C913        C914   1.381       .  A
C913        H925   1.080       .  S
C914        H926   1.081       .  S
C915        C916   1.379       .  A
C915        H927   1.081       .  S
C916        H928   1.081       .  S
C917        C918   1.377       .  A
C917        H929   1.081       .  S
C918        H930   1.081       .  S
C919        C920   1.375       .  A
C919        H931   1.081       .  S
C920        H932   1.081       .  S
C921        C980   1.528       .  S
C922       C1088   1.527       .  S
C922       C1518   1.433       .  A
C924       C1522   1.427       .  A
N935        C940   1.360       .  A
N935        C939   1.361       .  A
N935        H967   1.045       .  S
N936        C943   1.359       .  A
N936        C944   1.358       .  A
N937        C942   1.362       .  A
N937        C941   1.363       .  A
N937        H968   1.043       .  S
N938        C945   1.363       .  A
N938        C946   1.362       .  A
C939        C947   1.387       .  A
C940        C956   1.429       .  A
C940        C948   1.388       .  A
C941        C949   1.386       .  A
C941       C1366   1.432   1_545  A
C942        C957   1.435       .  A
C942        C950   1.389       .  A
C943        C955   1.426       .  A
C943        C951   1.387       .  A
C944        C958   1.425       .  A
C944        C952   1.387       .  A
C945        C953   1.387       .  A
C945       C1364   1.433       .  A
C946        C954   1.388       .  A
C947        C948   1.380       .  A
C947        H959   1.081       .  S
C948        H960   1.081       .  S
C949        C950   1.379       .  A
C949        H961   1.081       .  S
C950        H962   1.081       .  S
C951        C952   1.376       .  A
C951        H963   1.081       .  S
C952        H964   1.081       .  S
C953        C954   1.378       .  A
C953        H965   1.081       .  S
C954        H966   1.081       .  S
C956       C1353   1.433       .  A
C957        C994   1.529       .  S
C958       C1349   1.429       .  A
O969       V1181   1.924       .  S
O970        V977   1.921       .  S
O971        V977   1.903   1_554  S
O972       V1181   1.901       .  S
O973       V1182   1.900       .  S
O973        C982   1.262       .  A
O974        V978   1.898   1_554  S
O974        C981   1.262       .  A
O975       V1182   1.923       .  S
O975       C1184   1.271       .  A
O976        V978   1.923       .  S
O976        C979   1.268       .  A
V977       O1173   1.921       .  S
V977       O1176   1.899       .  S
V978       O1177   1.901       .  S
V978       O1179   1.922       .  S
C979       C1008   1.468       .  S
C980       O1179   1.271       .  A
C981       C1000   1.437       .  S
C982        C997   1.435       .  S
O983        V991   1.922       .  S
O984        V991   1.924       .  S
O985        V991   1.901       .  S
O986        V991   1.899       .  S
O987        V992   1.905       .  S
O987        C996   1.264       .  A
O988        V992   1.900       .  S
O988        C995   1.262       .  A
O989        V992   1.920       .  S
O989        C994   1.270       .  A
O990        V992   1.920       .  S
O990        C993   1.267       .  A
C993       C1006   1.464       .  S
C995        C998   1.435       .  S
C996        C999   1.437       .  S
C997        C998   1.206       .  T
C999       C1000   1.207       .  T
C1001      C1002   1.206       .  T
C1003      C1004   1.204       .  T
C1005      C1006   1.223       .  T
C1007      C1212   1.225       .  T
C1008      C1211   1.225       .  T
C1009      C1010   1.207       .  T
C1011      C1012   1.206       .  T
C1013      C1014   1.225       .  T
C1015      C1628   1.224       .  T
C1016      C1627   1.224       .  T
C1017      C1018   1.206       .  T
C1019      C1020   1.207       .  T
O1021      C1235   1.268       .  A
O1022      V1029   1.919       .  S
O1022      C1032   1.270       .  A
O1023      V1029   1.899       .  S
O1023      C1033   1.262       .  A
O1024      C1034   1.263       .  A
O1025      C1442   1.263   1_545  A
O1026      V1030   1.902       .  S
O1026      C1441   1.263   1_545  A
O1027      C1236   1.269   1_545  A
O1028      V1030   1.923       .  S
O1028      C1031   1.269   1_545  A
V1029      V1438   2.085       .  T
V1030      V1437   2.086   1_545  T
C1031      O1225   1.268       .  A
C1031      C1219   1.467       .  S
C1032      O1231   1.270       .  A
C1032      C1128   1.523       .  S
C1033      O1434   1.263       .  A
C1033      C1222   1.435       .  S
C1034      O1433   1.262       .  A
C1034      C1224   1.434       .  S
O1035      V1043   1.921       .  S
O1035      C1453   1.268   1_545  A
O1036      V1043   1.922       .  S
O1036      C1454   1.270   1_545  A
O1037      V1043   1.897       .  S
O1037      C1455   1.261   1_545  A
O1038      V1043   1.901       .  S
O1038      C1456   1.263   1_545  A
O1039      V1044   1.898       .  S
O1039      C1048   1.262       .  A
O1040      V1044   1.901       .  S
O1040      C1047   1.263       .  A
O1041      V1044   1.919       .  S
O1041      C1046   1.270       .  A
O1042      V1044   1.923       .  S
O1042      C1045   1.268       .  A
V1043      V1452   2.086   1_545  T
V1044      V1451   2.085       .  T
C1045      O1443   1.268       .  A
C1045      C1217   1.467       .  S
C1046      O1444   1.270       .  A
C1046      C1162   1.523       .  S
C1047      O1445   1.262       .  A
C1047      C1221   1.435       .  S
C1048      O1446   1.263       .  A
C1048      C1223   1.434       .  S
O1050      V1057   1.920       .  S
O1051      V1057   1.903   1_556  S
O1053      C1062   1.262       .  A
O1054      V1058   1.895   1_556  S
O1054      C1061   1.261       .  A
O1056      V1058   1.926       .  S
O1056      C1059   1.270       .  A
C1059      C1211   1.468   1_554  S
C1060      C1127   1.524       .  S
C1061      C1213   1.434       .  S
C1062      C1216   1.433       .  S
O1063      V1071   1.924       .  S
O1064      V1071   1.921       .  S
O1065      V1071   1.899       .  S
O1066      V1071   1.898       .  S
O1067      V1072   1.902       .  S
O1067      C1076   1.263       .  A
O1068      V1072   1.898       .  S
O1068      C1075   1.262       .  A
O1069      V1072   1.920       .  S
O1069      C1074   1.269       .  A
O1070      V1072   1.921       .  S
O1070      C1073   1.268       .  A
C1073      C1209   1.467       .  S
C1074      C1159   1.523       .  S
C1075      C1215   1.432       .  S
C1076      C1214   1.434       .  S
O1078      V1085   1.918       .  S
O1078      C1088   1.270       .  A
O1079      V1085   1.899       .  S
O1079      C1089   1.262       .  A
O1080      C1090   1.262       .  A
O1081      C1498   1.263   1_545  A
O1082      V1086   1.900       .  S
O1082      C1497   1.263   1_545  A
O1083      C1292   1.269   1_546  A
O1084      V1086   1.923       .  S
O1084      C1495   1.269   1_545  A
V1085      V1494   2.085       .  T
V1086      V1493   2.085   1_545  T
C1087      O1492   1.268       .  A
C1087      C1220   1.465       .  S
C1088      O1287   1.270       .  A
C1089      O1490   1.263       .  A
C1089      C1208   1.437       .  S
C1090      O1489   1.263       .  A
C1090      C1205   1.435       .  S
O1091      V1099   1.919       .  S
O1091      C1509   1.268   1_545  A
O1092      V1099   1.923       .  S
O1092      C1510   1.270   1_545  A
O1093      V1099   1.897       .  S
O1093      C1511   1.261   1_545  A
O1094      V1099   1.901       .  S
O1094      C1512   1.263   1_545  A
O1095      V1100   1.900       .  S
O1095      C1104   1.262       .  A
O1096      V1100   1.903       .  S
O1096      C1103   1.263       .  A
O1097      V1100   1.920       .  S
O1097      C1102   1.270       .  A
O1098      V1100   1.922       .  S
O1098      C1101   1.268       .  A
V1099      V1508   2.085   1_545  T
V1100      V1507   2.084       .  T
C1101      O1499   1.268       .  A
C1101      C1218   1.467       .  S
C1102      O1500   1.270       .  A
C1102      C1160   1.525       .  S
C1103      O1501   1.262       .  A
C1103      C1207   1.437       .  S
C1104      O1502   1.263       .  A
C1104      C1206   1.435       .  S
N1105      C1110   1.363       .  A
N1105      C1109   1.363       .  A
N1105      H1137   1.042       .  S
N1106      C1113   1.359       .  A
N1106      C1114   1.360       .  A
N1107      C1112   1.359       .  A
N1107      C1111   1.359       .  A
N1107      H1138   1.045   1_554  S
N1108      C1115   1.361   1_554  A
N1108      C1116   1.362   1_554  A
C1109      C1117   1.389       .  A
C1110      C1330   1.433   1_545  A
C1110      C1118   1.387       .  A
C1111      C1119   1.388       .  A
C1111      C1128   1.429   1_554  A
C1112      C1127   1.427       .  A
C1112      C1120   1.387       .  A
C1113      C1125   1.428       .  A
C1113      C1121   1.387       .  A
C1114      C1332   1.428   1_545  A
C1114      C1122   1.386       .  A
C1115      C1123   1.387       .  A
C1115      C1126   1.430   1_556  A
C1116      C1124   1.386       .  A
C1117      C1118   1.383       .  A
C1117      H1129   1.081       .  S
C1118      H1130   1.081       .  S
C1119      C1120   1.379       .  A
C1119      H1131   1.081       .  S
C1120      H1132   1.081       .  S
C1121      C1122   1.376       .  A
C1121      H1133   1.081       .  S
C1122      H1134   1.081       .  S
C1123      C1124   1.374       .  A
C1123      H1135   1.081       .  S
C1124      H1136   1.080       .  S
C1125      C1184   1.525       .  S
C1126      C1314   1.433       .  A
C1128      C1318   1.428       .  A
N1139      C1144   1.360       .  A
N1139      C1143   1.361       .  A
N1139      H1171   1.045       .  S
N1140      C1147   1.360       .  A
N1140      C1148   1.359       .  A
N1141      C1146   1.361       .  A
N1141      C1145   1.362       .  A
N1141      H1172   1.042       .  S
N1142      C1149   1.362       .  A
N1142      C1150   1.361       .  A
C1143      C1151   1.387       .  A
C1144      C1160   1.429       .  A
C1144      C1152   1.388       .  A
C1145      C1153   1.387       .  A
C1145      C1570   1.430   1_545  A
C1146      C1161   1.430       .  A
C1146      C1154   1.388       .  A
C1147      C1159   1.426       .  A
C1147      C1155   1.386       .  A
C1148      C1162   1.427       .  A
C1148      C1156   1.387       .  A
C1149      C1157   1.386       .  A
C1149      C1568   1.430   1_545  A
C1150      C1158   1.387       .  A
C1151      C1152   1.378       .  A
C1151      H1163   1.081       .  S
C1152      H1164   1.081       .  S
C1153      C1154   1.379       .  A
C1153      H1165   1.081       .  S
C1154      H1166   1.081       .  S
C1155      C1156   1.376       .  A
C1155      H1167   1.081       .  S
C1156      H1168   1.081       .  S
C1157      C1158   1.376       .  A
C1157      H1169   1.080       .  S
C1158      H1170   1.081       .  S
C1160      C1557   1.430       .  A
C1161      C1198   1.524       .  S
C1162      C1553   1.432       .  A
O1174      V1181   1.925       .  S
O1175      V1181   1.900       .  S
O1177      C1186   1.263       .  A
O1178      V1182   1.896       .  S
O1178      C1185   1.261       .  A
O1180      V1182   1.925       .  S
O1180      C1183   1.269       .  A
C1183      C1212   1.467       .  S
C1185      C1204   1.433       .  S
C1186      C1201   1.435       .  S
O1187      V1195   1.920       .  S
O1188      V1195   1.916       .  S
O1189      V1195   1.900       .  S
O1190      V1195   1.896       .  S
O1191      V1196   1.901       .  S
O1191      C1200   1.263       .  A
O1192      V1196   1.897       .  S
O1192      C1199   1.261       .  A
O1193      V1196   1.923       .  S
O1193      C1198   1.271       .  A
O1194      V1196   1.924       .  S
O1194      C1197   1.269       .  A
C1197      C1210   1.467       .  S
C1199      C1202   1.434       .  S
C1200      C1203   1.433       .  S
C1201      C1202   1.205       .  T
C1203      C1204   1.204       .  T
C1205      C1206   1.206       .  T
C1207      C1208   1.207       .  T
C1209      C1210   1.225       .  T
C1213      C1214   1.205       .  T
C1215      C1216   1.204       .  T
C1217      C1218   1.225       .  T
C1219      C1424   1.224       .  T
C1220      C1423   1.224       .  T
C1221      C1222   1.206       .  T
C1223      C1224   1.205       .  T
O1225      V1437   1.920       .  S
O1226      V1233   1.920       .  S
O1226      C1236   1.270       .  A
O1227      V1233   1.898       .  S
O1227      C1237   1.262       .  A
O1228      V1437   1.901   1_554  S
O1228      C1238   1.263       .  A
O1229      V1438   1.900   1_554  S
O1230      V1234   1.901       .  S
O1231      V1438   1.922       .  S
O1232      V1234   1.919       .  S
O1232      C1235   1.268       .  A
V1233      O1429   1.923       .  S
V1233      O1432   1.900       .  S
V1234      O1433   1.897       .  S
V1234      O1435   1.919       .  S
C1235      C1423   1.465       .  S
C1236      C1332   1.520       .  S
C1237      C1426   1.435       .  S
C1238      C1428   1.435       .  S
O1239      V1247   1.924       .  S
O1240      V1247   1.922       .  S
O1241      V1247   1.898       .  S
O1242      V1247   1.903       .  S
O1243      V1248   1.898       .  S
O1243      C1252   1.262       .  A
O1244      V1248   1.901       .  S
O1244      C1251   1.263       .  A
O1245      V1248   1.919       .  S
O1245      C1250   1.271       .  A
O1246      V1248   1.924       .  S
O1246      C1249   1.269       .  A
C1249      C1421   1.469       .  S
C1250      C1366   1.523       .  S
C1251      C1425   1.434       .  S
C1252      C1427   1.435       .  S
O1253      V1465   1.919   1_556  S
O1254      V1261   1.918       .  S
O1255      V1261   1.902       .  S
O1256      V1465   1.897       .  S
O1257      V1466   1.900       .  S
O1257      C1266   1.262       .  A
O1258      V1262   1.900       .  S
O1258      C1265   1.262       .  A
O1259      V1466   1.921       .  S
O1259      C1468   1.270       .  A
O1260      V1262   1.923       .  S
O1260      C1263   1.269       .  A
V1261      O1457   1.920       .  S
V1261      O1460   1.897       .  S
V1262      O1461   1.899       .  S
V1262      O1463   1.920       .  S
C1263      C1415   1.467       .  S
C1264      O1463   1.270       .  A
C1264      C1331   1.522       .  S
C1265      C1417   1.437       .  S
C1266      C1420   1.433       .  S
O1267      V1275   1.922       .  S
O1268      V1275   1.922       .  S
O1269      V1275   1.901       .  S
O1270      V1275   1.900       .  S
O1271      V1276   1.903       .  S
O1271      C1280   1.263       .  A
O1272      V1276   1.897       .  S
O1272      C1279   1.262       .  A
O1273      V1276   1.917       .  S
O1273      C1278   1.269       .  A
O1274      V1276   1.919       .  S
O1274      C1277   1.268       .  A
C1277      C1413   1.465       .  S
C1278      C1363   1.521       .  S
C1279      C1419   1.433       .  S
C1280      C1418   1.437       .  S
O1281      V1493   1.921       .  S
O1281      C1495   1.268       .  A
O1282      V1289   1.921   1_554  S
O1282      C1292   1.271       .  A
O1283      V1289   1.898   1_554  S
O1283      C1293   1.262       .  A
O1284      V1493   1.902       .  S
O1284      C1294   1.263       .  A
O1285      V1494   1.900       .  S
O1286      V1290   1.901   1_554  S
O1287      V1494   1.925       .  S
O1288      V1290   1.921   1_554  S
V1289      O1485   1.925       .  S
V1289      O1488   1.901       .  S
V1290      O1489   1.900       .  S
V1290      O1491   1.924       .  S
C1291      O1485   1.269       .  A
C1291      C1424   1.467       .  S
C1292      C1534   1.526       .  S
C1293      C1412   1.437       .  S
C1294      C1409   1.437       .  S
O1295      V1303   1.919       .  S
O1296      V1303   1.921       .  S
O1297      V1303   1.896       .  S
O1298      V1303   1.901       .  S
O1299      V1304   1.900       .  S
O1299      C1308   1.262       .  A
O1300      V1304   1.903       .  S
O1300      C1307   1.263       .  A
O1301      V1304   1.923       .  S
O1301      C1306   1.271       .  A
O1302      V1304   1.925       .  S
O1302      C1305   1.269       .  A
C1305      C1422   1.469       .  S
C1306      C1364   1.528   1_565  S
C1307      C1411   1.437       .  S
C1308      C1410   1.437       .  S
N1309      C1314   1.362   1_556  A
N1309      C1313   1.363   1_556  A
N1309      H1341   1.043       .  S
N1310      C1317   1.360       .  A
N1310      C1318   1.361       .  A
N1311      C1316   1.358       .  A
N1311      C1315   1.359       .  A
N1311      H1342   1.044       .  S
N1312      C1319   1.361       .  A
N1312      C1320   1.362       .  A
C1313      C1321   1.389       .  A
C1314      C1322   1.387       .  A
C1315      C1323   1.388       .  A
C1315      C1332   1.427       .  A
C1316      C1331   1.426       .  A
C1316      C1324   1.387       .  A
C1317      C1329   1.429       .  A
C1317      C1325   1.387       .  A
C1318      C1326   1.386       .  A
C1319      C1327   1.387       .  A
C1319      C1330   1.430       .  A
C1320      C1328   1.386       .  A
C1321      C1322   1.381       .  A
C1321      H1333   1.081       .  S
C1322      H1334   1.081       .  S
C1323      C1324   1.379       .  A
C1323      H1335   1.081       .  S
C1324      H1336   1.081       .  S
C1325      C1326   1.377       .  A
C1325      H1337   1.081       .  S
C1326      H1338   1.081       .  S
C1327      C1328   1.374       .  A
C1327      H1339   1.081       .  S
C1328      H1340   1.080       .  S
C1329      C1388   1.525       .  S
C1330      C1496   1.528       .  S
N1343      C1348   1.361       .  A
N1343      C1347   1.362       .  A
N1343      H1375   1.042       .  S
N1344      C1351   1.360       .  A
N1344      C1352   1.359       .  A
N1345      C1350   1.361       .  A
N1345      C1349   1.362       .  A
N1345      H1376   1.043       .  S
N1346      C1353   1.362       .  A
N1346      C1354   1.362       .  A
C1347      C1355   1.386       .  A
C1348      C1364   1.430   1_565  A
C1348      C1356   1.388       .  A
C1349      C1357   1.386       .  A
C1350      C1365   1.430       .  A
C1350      C1358   1.388       .  A
C1351      C1363   1.426       .  A
C1351      C1359   1.386       .  A
C1352      C1366   1.425       .  A
C1352      C1360   1.386       .  A
C1353      C1361   1.387       .  A
C1354      C1362   1.387       .  A
C1355      C1356   1.379       .  A
C1355      H1367   1.081       .  S
C1356      H1368   1.081       .  S
C1357      C1358   1.378       .  A
C1357      H1369   1.081       .  S
C1358      H1370   1.081       .  S
C1359      C1360   1.374       .  A
C1359      H1371   1.081       .  S
C1360      H1372   1.081       .  S
C1361      C1362   1.378       .  A
C1361      H1373   1.081       .  S
C1362      H1374   1.081       .  S
C1365      C1402   1.528       .  S
O1377      V1589   1.920       .  S
O1378      V1385   1.924       .  S
O1379      V1385   1.901   1_554  S
O1380      V1589   1.901       .  S
O1381      V1590   1.899       .  S
O1381      C1390   1.262       .  A
O1382      V1386   1.901   1_554  S
O1382      C1389   1.263       .  A
O1383      V1590   1.922       .  S
O1383      C1592   1.271       .  A
O1384      V1386   1.923       .  S
O1384      C1387   1.268       .  A
V1385      O1581   1.923       .  S
V1385      O1584   1.898       .  S
V1386      O1585   1.903       .  S
V1386      O1587   1.920       .  S
C1387      C1416   1.467       .  S
C1388      O1587   1.270       .  A
C1389      C1408   1.439       .  S
C1390      C1405   1.435       .  S
O1391      V1399   1.920       .  S
O1392      V1399   1.921       .  S
O1393      V1399   1.901       .  S
O1394      V1399   1.901       .  S
O1395      V1400   1.904       .  S
O1395      C1404   1.263       .  A
O1396      V1400   1.899       .  S
O1396      C1403   1.262       .  A
O1397      V1400   1.923       .  S
O1397      C1402   1.271       .  A
O1398      V1400   1.923       .  S
O1398      C1401   1.269       .  A
C1401      C1414   1.465       .  S
C1403      C1406   1.435       .  S
C1404      C1407   1.439       .  S
C1405      C1406   1.206       .  T
C1407      C1408   1.208       .  T
C1409      C1410   1.207       .  T
C1411      C1412   1.207       .  T
C1413      C1414   1.224       .  T
C1415      C1620   1.225       .  T
C1416      C1619   1.225   1_556  T
C1417      C1418   1.207       .  T
C1419      C1420   1.205       .  T
C1421      C1422   1.226       .  T
C1425      C1426   1.205       .  T
C1427      C1428   1.206       .  T
O1430      V1437   1.920       .  S
O1430      C1440   1.270       .  A
O1431      V1437   1.898       .  S
O1431      C1441   1.262       .  A
O1432      C1442   1.262       .  A
O1434      V1438   1.902       .  S
O1436      V1438   1.921       .  S
O1436      C1439   1.268       .  A
C1439      C1627   1.466       .  S
C1440      C1536   1.524       .  S
C1441      C1630   1.435       .  S
C1442      C1632   1.436       .  S
O1443      V1451   1.921       .  S
O1444      V1451   1.923       .  S
O1445      V1451   1.898       .  S
O1446      V1451   1.901       .  S
O1447      V1452   1.901       .  S
O1447      C1456   1.263       .  A
O1448      V1452   1.902       .  S
O1448      C1455   1.263       .  A
O1449      V1452   1.917       .  S
O1449      C1454   1.269       .  A
O1450      V1452   1.920       .  S
O1450      C1453   1.268       .  A
C1453      C1625   1.465       .  S
C1454      C1570   1.522       .  S
C1455      C1629   1.434       .  S
C1456      C1631   1.436       .  S
O1458      V1465   1.916       .  S
O1459      V1465   1.902   1_556  S
O1461      C1470   1.262       .  A
O1462      V1466   1.898   1_556  S
O1462      C1469   1.262       .  A
O1464      V1466   1.923       .  S
O1464      C1467   1.269       .  A
C1467      C1619   1.467       .  S
C1468      C1535   1.521       .  S
C1469      C1621   1.435       .  S
C1470      C1624   1.433       .  S
O1471      V1479   1.923       .  S
O1472      V1479   1.921       .  S
O1473      V1479   1.900       .  S
O1474      V1479   1.900       .  S
O1475      V1480   1.902       .  S
O1475      C1484   1.263       .  A
O1476      V1480   1.898       .  S
O1476      C1483   1.262       .  A
O1477      V1480   1.920       .  S
O1477      C1482   1.270       .  A
O1478      V1480   1.922       .  S
O1478      C1481   1.268       .  A
C1481      C1617   1.468       .  S
C1482      C1567   1.521       .  S
C1483      C1623   1.433       .  S
C1484      C1622   1.435       .  S
O1486      V1493   1.919       .  S
O1486      C1496   1.270       .  A
O1487      V1493   1.896       .  S
O1487      C1497   1.261       .  A
O1488      C1498   1.263       .  A
O1490      V1494   1.903       .  S
O1492      V1494   1.922       .  S
C1495      C1628   1.466       .  S
C1497      C1616   1.432       .  S
C1498      C1613   1.435       .  S
O1499      V1507   1.922       .  S
O1500      V1507   1.924       .  S
O1501      V1507   1.899       .  S
O1502      V1507   1.901       .  S
O1503      V1508   1.899       .  S
O1503      C1512   1.262       .  A
O1504      V1508   1.899       .  S
O1504      C1511   1.262       .  A
O1505      V1508   1.921       .  S
O1505      C1510   1.270       .  A
O1506      V1508   1.922       .  S
O1506      C1509   1.268       .  A
C1509      C1626   1.465       .  S
C1510      C1568   1.526       .  S
C1511      C1615   1.432       .  S
C1512      C1614   1.435       .  S
N1513      C1518   1.362       .  A
N1513      C1517   1.361       .  A
N1513      H1545   1.044       .  S
N1514      C1521   1.360       .  A
N1514      C1522   1.361       .  A
N1515      C1520   1.360       .  A
N1515      C1519   1.360       .  A
N1515      H1546   1.041   1_554  S
N1516      C1523   1.360   1_554  A
N1516      C1524   1.361   1_554  A
C1517      C1525   1.389       .  A
C1518      C1526   1.388       .  A
C1519      C1527   1.388       .  A
C1519      C1536   1.429   1_554  A
C1520      C1535   1.427       .  A
C1520      C1528   1.387       .  A
C1521      C1533   1.429       .  A
C1521      C1529   1.387       .  A
C1522      C1530   1.386       .  A
C1523      C1531   1.387       .  A
C1523      C1534   1.428   1_556  A
C1524      C1532   1.386       .  A
C1525      C1526   1.382       .  A
C1525      H1537   1.081       .  S
C1526      H1538   1.081       .  S
C1527      C1528   1.380       .  A
C1527      H1539   1.081       .  S
C1528      H1540   1.082       .  S
C1529      C1530   1.375       .  A
C1529      H1541   1.081       .  S
C1530      H1542   1.081       .  S
C1531      C1532   1.374       .  A
C1531      H1543   1.081       .  S
C1532      H1544   1.080       .  S
C1533      C1592   1.528       .  S
N1547      C1552   1.360       .  A
N1547      C1551   1.360       .  A
N1547      H1579   1.044       .  S
N1548      C1555   1.359       .  A
N1548      C1556   1.359       .  A
N1549      C1554   1.361       .  A
N1549      C1553   1.362       .  A
N1549      H1580   1.043       .  S
N1550      C1557   1.362       .  A
N1550      C1558   1.361       .  A
C1551      C1559   1.387       .  A
C1552      C1568   1.429       .  A
C1552      C1560   1.388       .  A
C1553      C1561   1.388       .  A
C1554      C1569   1.432       .  A
C1554      C1562   1.388       .  A
C1555      C1567   1.426       .  A
C1555      C1563   1.387       .  A
C1556      C1570   1.427       .  A
C1556      C1564   1.387       .  A
C1557      C1565   1.386       .  A
C1558      C1566   1.388       .  A
C1559      C1560   1.379       .  A
C1559      H1571   1.081       .  S
C1560      H1572   1.081       .  S
C1561      C1562   1.382       .  A
C1561      H1573   1.081       .  S
C1562      H1574   1.081       .  S
C1563      C1564   1.376       .  A
C1563      H1575   1.081       .  S
C1564      H1576   1.081       .  S
C1565      C1566   1.377       .  A
C1565      H1577   1.081       .  S
C1566      H1578   1.081       .  S
C1569      C1606   1.526       .  S
O1582      V1589   1.920       .  S
O1583      V1589   1.902       .  S
O1585      C1594   1.263       .  A
O1586      V1590   1.893       .  S
O1586      C1593   1.260       .  A
O1588      V1590   1.923       .  S
O1588      C1591   1.269       .  A
C1591      C1620   1.467       .  S
C1593      C1612   1.430       .  S
C1594      C1609   1.437       .  S
O1595      V1603   1.922       .  S
O1596      V1603   1.920       .  S
O1597      V1603   1.900       .  S
O1598      V1603   1.897       .  S
O1599      V1604   1.900       .  S
O1599      C1608   1.263       .  A
O1600      V1604   1.898       .  S
O1600      C1607   1.262       .  A
O1601      V1604   1.925       .  S
O1601      C1606   1.271       .  A
O1602      V1604   1.924       .  S
O1602      C1605   1.269       .  A
C1605      C1618   1.469       .  S
C1607      C1610   1.436       .  S
C1608      C1611   1.431       .  S
C1609      C1610   1.207       .  T
C1611      C1612   1.203       .  T
C1613      C1614   1.206       .  T
C1615      C1616   1.204       .  T
C1617      C1618   1.225       .  T
C1621      C1622   1.206       .  T
C1623      C1624   1.205       .  T
C1625      C1626   1.223       .  T
C1629      C1630   1.206       .  T
C1631      C1632   1.206       .  T
