geometry optimzed in LAMMPS
_audit_creation_date              2020-11-30 
_audit_creation_method            'lammps2cif' 
_symmetry_space_group_name_H-M    'P1' 
_symmetry_Int_Tables_number       1 
_symmetry_cell_setting            triclinic 
loop_ 
_symmetry_equiv_pos_as_xyz 
  x,y,z 
_cell_length_a                    35.21777366 
_cell_length_b                    34.98850785944037 
_cell_length_c                    35.01999364905989 
_cell_angle_alpha                 89.35270367848821 
_cell_angle_beta                  88.91744129083655 
_cell_angle_gamma                 90.13718373631993 
loop_ 
_atom_site_label 
_atom_site_type_symbol 
_atom_site_fract_x 
_atom_site_fract_y 
_atom_site_fract_z 
_atom_site_charge 
C1          C  0.45702622  0.22381084  0.04286116     0.80900
N2          N  0.42396129  0.23882023  0.03039744    -0.77400
C3          C  0.40387465  0.22112059  0.00281043     0.83300
N4          N  0.41782896  0.18855987  0.98637295    -0.77300
C5          C  0.45090710  0.17331116  0.99944679     0.83400
N6          N  0.46989700  0.19109071  0.02727857    -0.79100
C7          C  0.43612967  0.17068630  0.55576302     0.80900
N8          N  0.45653478  0.14480875  0.53582376    -0.77400
C9          C  0.44822921  0.13560654  0.49932840     0.83300
N10         N  0.41928939  0.15439501  0.48120971    -0.77300
C11         C  0.39876600  0.18109318  0.50142126     0.83400
N12         N  0.40735085  0.18838073  0.53816975    -0.79100
C13         C  0.38374762  0.47149434  0.89598576     0.80900
N14         N  0.37076404  0.43890904  0.91255658    -0.77400
C15         C  0.38867684  0.42231858  0.94209694     0.83300
N16         N  0.42102805  0.43843277  0.95572722    -0.77300
C17         C  0.43545146  0.47058352  0.93801791     0.83400
N18         N  0.41620254  0.48729080  0.90893809    -0.79100
C19         C  0.38821128  0.41940060  0.55230268     0.80900
N20         N  0.41666764  0.44033969  0.53626297    -0.77400
C21         C  0.42948551  0.43394473  0.50014518     0.83300
N22         N  0.41308836  0.40584543  0.47881913    -0.77300
C23         C  0.38474893  0.38391692  0.49533163     0.83400
N24         N  0.37272242  0.39133782  0.53146277    -0.79100
O25         O  0.50009186  0.48996868  0.93470308    -0.77800
C26         C  0.04870519  0.06614498  0.86279863     0.83200
O27         O  0.12040910  0.52139605  0.00155741    -0.78900
O28         O  0.08990109  0.14008501  0.93613386    -0.80400
O29         O  0.46649960  0.10823158  0.00148123    -0.80200
O30         O  0.46261504  0.01451075  0.98000986    -0.78800
Zn31       Zn  0.05075675  0.01949408  0.93640273     1.55700
O32         O  0.99460528  0.14492086  0.95649603    -0.80200
Cd33       Cd  0.99690209  0.05750591  0.00087329     1.59700
Cd34       Cd  0.08798215  0.07067743  0.00315841     1.59600
O35         O  0.01120203  0.04773250  0.05723044    -0.80200
O36         O  0.04387938  0.06369750  0.96883227    -1.90700
Cd37       Cd  0.03872286  0.11015495  0.93620774     1.59900
O38         O  0.06916469  0.07303620  0.06021068    -0.80200
O39         O  0.03306651  0.09427711  0.87976555    -0.78800
C40         C  0.11808628  0.49013786  0.98337510     0.83700
C41         C  0.46824442  0.49152006  0.95276115     0.83400
O42         O  0.06134323  0.03749284  0.88167717    -0.77800
C43         C  0.46976816  0.13977826  0.98316457     0.84200
O44         O  0.09348480  0.48505166  0.95744656    -0.77900
C45         C  0.03942612  0.05882313  0.07660810     0.84300
C46         C  0.11965806  0.13917376  0.95635606     0.84600
O47         O  0.12278334  0.11649680  0.98498642    -0.80300
O48         O  0.07678631  0.44654708  0.50194574    -0.77800
C49         C  0.05645510  0.03996625  0.57587185     0.83200
O50         O  0.45871862  0.98043239  0.45713774    -0.78900
O51         O  0.00865065  0.10997765  0.49243007    -0.80400
O52         O  0.13127206  0.05037362  0.44753285    -0.80200
O53         O  0.10972104  0.45667963  0.44813027    -0.78800
Zn54       Zn  0.03914154  0.98729610  0.51028802     1.55700
O55         O  0.10402473  0.10173735  0.47334809    -0.80200
Cd56       Cd  0.08744746  0.01204515  0.43658884     1.59700
Cd57       Cd  0.99316080  0.02915087  0.44354303     1.59600
O58         O  0.06880802  0.01806900  0.38069393    -0.80200
O59         O  0.04330020  0.02547088  0.47096871    -1.90700
Cd60       Cd  0.05527754  0.07536960  0.49517716     1.59900
O61         O  0.00645949  0.03084665  0.38493935    -0.80200
O62         O  0.06379140  0.06829189  0.55371201    -0.78800
C63         C  0.46111385  0.45862402  0.48680257     0.83700
C64         C  0.10151499  0.43597108  0.47743416     0.83400
O65         O  0.04564145  0.00803998  0.56283999    -0.77800
C66         C  0.13322588  0.08416105  0.46087780     0.84200
O67         O  0.48910764  0.46075619  0.50903203    -0.77900
C68         C  0.03697342  0.02548128  0.36514749     0.84300
C69         C  0.47440532  0.10746287  0.48155894     0.84600
O70         O  0.46280533  0.07919940  0.46180646    -0.80300
C71         C  0.13791803  0.41187513  0.05018914     0.80900
N72         N  0.12288422  0.44263296  0.03246050    -0.77400
C73         C  0.13810688  0.45707217  0.99961734     0.83300
N74         N  0.16975245  0.44046135  0.98364231    -0.77300
C75         C  0.18585654  0.40987352  0.00204965     0.83400
N76         N  0.16943429  0.39574872  0.03465473    -0.79100
C77         C  0.10547938  0.33769803  0.51433971     0.80900
N78         N  0.09465186  0.37353816  0.50542784    -0.77400
C79         C  0.11689054  0.39720879  0.48384047     0.83300
N80         N  0.15181542  0.38489259  0.47146091    -0.77300
C81         C  0.16292784  0.34830462  0.48036993     0.83400
N82         N  0.13971309  0.32513831  0.50182215    -0.79100
C83         C  0.20246768  0.16203674  0.89460530     0.80900
N84         N  0.17110169  0.14516156  0.91024463    -0.77400
C85         C  0.15340939  0.15987817  0.94159931     0.83300
N86         N  0.16821214  0.19146187  0.95875790    -0.77300
C87         C  0.19945334  0.20890172  0.94245741     0.83400
N88         N  0.21592128  0.19403441  0.91082767    -0.79100
C89         C  0.22593789  0.08780725  0.50512181     0.80900
N90         N  0.19305431  0.07533962  0.49057605    -0.77400
C91         C  0.17092118  0.09912408  0.46976291     0.83300
N92         N  0.18152478  0.13659823  0.46408500    -0.77300
C93         C  0.21536339  0.14878810  0.47833902     0.83400
N94         N  0.23675836  0.12425515  0.49889838    -0.79100
O95         O  0.26752057  0.32903346  0.88484659    -0.77800
C96         C  0.21976951  0.24108057  0.95920608     0.83200
O97         O  0.24969403  0.39058474  0.00725546    -0.78900
O98         O  0.27768915  0.28420485  0.06181612    -0.80400
O99         O  0.37454236  0.26462615  0.96074465    -0.80200
O100        O  0.32468889  0.30194535  0.88360645    -0.78800
Zn101      Zn  0.24999082  0.32221602  0.94057098     1.55700
O102        O  0.33887373  0.23825985  0.00750520    -0.80200
Cd103      Cd  0.33991404  0.30809825  0.94027095     1.59700
Cd104      Cd  0.30032341  0.35949562  0.00693042     1.59600
O105        O  0.37109574  0.35810112  0.94022707    -0.80200
O106        O  0.29362361  0.31477268  0.97298652    -1.90700
Cd107      Cd  0.28737081  0.26826274  0.00586330     1.59900
O108        O  0.34544717  0.39387813  0.98649876    -0.80200
O109        O  0.24319295  0.23434126  0.98585971    -0.78800
C110        C  0.21958788  0.38930189  0.98749857     0.83700
C111        C  0.29630694  0.31611375  0.86624131     0.83400
O112        O  0.21920554  0.27299710  0.94122847    -0.77800
C113        C  0.37012104  0.24104415  0.98852652     0.84200
O114        O  0.21610807  0.36609317  0.95984093    -0.77900
C115        C  0.36938912  0.38897347  0.95907019     0.84300
C116        C  0.29185429  0.31169680  0.08047984     0.84600
O117        O  0.30671005  0.34074940  0.06333916    -0.80300
O118        O  0.20389916  0.30178479  0.45408875    -0.77800
C119        C  0.29708737  0.28103446  0.36788010     0.83200
O120        O  0.24889083  0.19842263  0.50496340    -0.78900
O121        O  0.37191434  0.22602203  0.45671651    -0.80400
O122        O  0.32515024  0.36437780  0.47594088    -0.80200
O123        O  0.22963765  0.34992457  0.48606389    -0.78800
Zn124      Zn  0.24699683  0.26549774  0.43962313     1.55700
O125        O  0.37278063  0.32418666  0.46407579    -0.80200
Cd126      Cd  0.28334984  0.32769519  0.49589544     1.59700
Cd127      Cd  0.28991668  0.23820266  0.51252580     1.59200
O128        O  0.28916262  0.32339486  0.55542498    -0.80200
O129        O  0.28994772  0.27676609  0.47171007    -1.90700
Cd130      Cd  0.34077229  0.27676613  0.44398539     1.59900
O131        O  0.28570332  0.26070682  0.56657074    -0.80200
O132        O  0.32837364  0.28257574  0.38595763    -0.78800
C133        C  0.22960839  0.18839906  0.47642637     0.83700
C134        C  0.20105753  0.33361146  0.47146623     0.83400
O135        O  0.26526440  0.27475069  0.38513259    -0.77800
C136        C  0.36052323  0.35689529  0.47473727     0.84200
O137        O  0.22678724  0.20986851  0.44685848    -0.77900
C138        C  0.28775657  0.29485508  0.57851371     0.84300
C139        C  0.36775241  0.20479702  0.48655515     0.84600
O140        O  0.33938484  0.20821898  0.50927011    -0.80300
C141        C  0.32736936  0.30955200  0.76096743    -0.13700
C142        C  0.29339438  0.31778841  0.74234736     0.16700
C143        C  0.26060810  0.32642517  0.76447442     0.03000
C144        C  0.26237776  0.32579319  0.80457079    -0.12200
C145        C  0.29631273  0.31721415  0.82347329    -0.03200
C146        C  0.32921326  0.30938412  0.80096894     0.02200
C147        C  0.29181449  0.31360724  0.70010088     0.09100
N148        N  0.22542949  0.33613814  0.74668661     0.65400
H149        H  0.23690502  0.33219695  0.82103242     0.18300
N150        N  0.36481954  0.30110836  0.81809919     0.75900
H151        H  0.35256253  0.30256169  0.74429999     0.09900
C152        C  0.31515248  0.33530795  0.67458960     0.03600
C153        C  0.31360565  0.32857291  0.63504435    -0.05200
C154        C  0.28870435  0.30120060  0.62035265    -0.23500
C155        C  0.26600987  0.27926811  0.64601748     0.12800
C156        C  0.26773386  0.28556215  0.68537740    -0.12700
N157        N  0.34006428  0.36456318  0.68812038     0.64500
H158        H  0.33196405  0.34418917  0.61602694     0.12300
N159        N  0.24062340  0.25072278  0.63253838     0.61100
H160        H  0.25034635  0.26840379  0.70452492     0.08500
O161        O  0.38627016  0.32812532  0.82776925    -0.40300
O162        O  0.37699234  0.26722062  0.81882398    -0.39500
O163        O  0.19429209  0.32449297  0.76104460    -0.39500
O164        O  0.22512395  0.35878816  0.71836894    -0.37200
O165        O  0.24930955  0.21584741  0.63531731    -0.38100
O166        O  0.20782751  0.26004725  0.62201023    -0.34300
O167        O  0.37228407  0.36968801  0.67245550    -0.35700
O168        O  0.32850933  0.38782524  0.71304207    -0.40000
C169        C  0.32811376  0.29365727  0.26312332    -0.13700
C170        C  0.29376569  0.30426598  0.24637178     0.16700
C171        C  0.26068215  0.30707990  0.26955358     0.03000
C172        C  0.26262559  0.29858313  0.30871402    -0.12200
C173        C  0.29694172  0.28772784  0.32573293    -0.03200
C174        C  0.33006911  0.28502400  0.30230627     0.02200
C175        C  0.29225112  0.30820609  0.20411712     0.09100
N176        N  0.22513027  0.31914577  0.25394212     0.65400
H177        H  0.23710127  0.30149371  0.32617641     0.18300
N178        N  0.36537675  0.27165953  0.31714522     0.75900
H179        H  0.35330987  0.29039223  0.24521589     0.09900
C180        C  0.31547759  0.33438787  0.18343627     0.03600
C181        C  0.31490429  0.33479234  0.14331407    -0.05200
C182        C  0.29150646  0.30968439  0.12309197    -0.23500
C183        C  0.26829502  0.28345781  0.14421709     0.12800
C184        C  0.26882176  0.28326010  0.18418342    -0.12700
N185        N  0.33922780  0.36110732  0.20271101     0.64500
H186        H  0.33282995  0.35512944  0.12787650     0.12300
N187        N  0.24427710  0.25641200  0.12594599     0.61100
H188        H  0.25144647  0.26259699  0.19987555     0.08500
O189        O  0.39589800  0.28885982  0.30830073    -0.40300
O190        O  0.36690685  0.23936707  0.33349048    -0.39500
O191        O  0.19433161  0.30473270  0.26634335    -0.39500
O192        O  0.22410085  0.34644536  0.23009592    -0.37200
O193        O  0.25889540  0.22709534  0.11106427    -0.38100
O194        O  0.20903926  0.25664821  0.13319747    -0.34300
O195        O  0.37232424  0.36822886  0.19005866    -0.35700
O196        O  0.32623094  0.37984193  0.23062894    -0.40000
C197        C  0.08385190  0.07294113  0.67515531    -0.13700
C198        C  0.05589357  0.05454069  0.69779207     0.16700
C199        C  0.02939872  0.03033684  0.68048063     0.03000
C200        C  0.03126161  0.02500068  0.64092542    -0.12200
C201        C  0.05837743  0.04429521  0.61786658    -0.03200
C202        C  0.08519146  0.06820267  0.63538602     0.02200
C203        C  0.05583913  0.05904930  0.73974671     0.09100
N204        N  0.50055441  0.01089765  0.70271195     0.65400
H205        H  0.51034685  0.00672611  0.62795810     0.18300
N206        N  0.11417051  0.08738661  0.61334515     0.75900
H207        H  0.10467658  0.09107521  0.68844873     0.09900
C208        C  0.07851381  0.03570367  0.76293328     0.03600
C209        C  0.07656141  0.03943207  0.80271713    -0.05200
C210        C  0.05215794  0.06614734  0.82023052    -0.23500
C211        C  0.03069702  0.09083309  0.79649115     0.12800
C212        C  0.03260444  0.08675171  0.75666415    -0.12700
N213        N  0.10297669  0.50734143  0.74677563     0.64500
H214        H  0.09351936  0.52025775  0.82030936     0.12300
N215        N  0.00656927  0.11991002  0.81199142     0.61100
H216        H  0.01567081  0.10524083  0.73873784     0.08500
O217        O  0.14563858  0.57225813  0.60914157    -0.40300
O218        O  0.10944390  0.12164457  0.60287512    -0.39500
O219        O  0.47738646  0.02970913  0.72296003    -0.39500
O220        O  0.49535944  0.97548604  0.69863463    -0.37200
O221        O  0.02128472  0.14918542  0.82645008    -0.38100
O222        O  0.97193205  0.12062955  0.80340618    -0.34300
O223        O  0.13828051  0.50916261  0.75203972    -0.35700
O224        O  0.08931179  0.47910744  0.72956906    -0.40000
C225        C  0.06312568  0.01954297  0.25902931    -0.13700
C226        C  0.03624233  0.04406617  0.24277052     0.16700
C227        C  0.00808908  0.06055626  0.26670885     0.03000
C228        C  0.00792129  0.05261312  0.30617169    -0.12200
C229        C  0.03567024  0.02911573  0.32269556    -0.03200
C230        C  0.06309765  0.01171606  0.29843166     0.02200
C231        C  0.03687677  0.05001029  0.20047872     0.09100
N232        N  0.48041543  0.08650781  0.25172497     0.65400
H233        H  0.48690146  0.06639576  0.32428435     0.18300
N234        N  0.09021491  0.98494593  0.31294112     0.75900
H235        H  0.08385621  0.00558624  0.24070179     0.09900
C236        C  0.07006428  0.06214439  0.18041507     0.03600
C237        C  0.07019331  0.06429458  0.14029516    -0.05200
C238        C  0.03779867  0.05506371  0.11926991    -0.23500
C239        C  0.00458573  0.04299397  0.13968718     0.12800
C240        C  0.00453966  0.04070804  0.17970643    -0.12700
N241        N  0.10363559  0.07302534  0.20031131     0.64500
H242        H  0.09586037  0.07382611  0.12552216     0.12300
N243        N  0.97059633  0.53219079  0.12072850     0.61100
H244        H  0.97918704  0.03058353  0.19469404     0.08500
O245        O  0.12440425  0.98651797  0.30151899    -0.40300
O246        O  0.07908132  0.95659967  0.33281796    -0.39500
O247        O  0.44642695  0.08505025  0.26378171    -0.39500
O248        O  0.49050117  0.11314960  0.22909923    -0.37200
O249        O  0.96871455  0.50002797  0.10489422    -0.38100
O250        O  0.44056762  0.55114106  0.12616787    -0.34300
O251        O  0.13600780  0.06371222  0.18747456    -0.35700
O252        O  0.10125635  0.09445593  0.22901801    -0.40000
C253        C  0.34977852  0.99646534  0.61072763    -0.13700
C254        C  0.31169590  0.98907088  0.60186131     0.16700
C255        C  0.30024160  0.45082161  0.59633622     0.03000
C256        C  0.32816694  0.42353783  0.58908262    -0.12200
C257        C  0.36647078  0.43462837  0.58560533    -0.03200
C258        C  0.37793606  0.96931297  0.60229887     0.02200
C259        C  0.28982359  0.02036921  0.58366286     0.09100
N260        N  0.26162078  0.44055100  0.58960104     0.65400
H261        H  0.31897014  0.39650735  0.57830985     0.18300
N262        N  0.41736424  0.97916448  0.60601264     0.75900
H263        H  0.35810849  0.02517682  0.61804465     0.09900
C264        C  0.25030847  0.02522807  0.58964098     0.03600
C265        C  0.22967807  0.04577308  0.56224803    -0.05200
C266        C  0.24803709  0.06360176  0.53088400    -0.23500
C267        C  0.28777358  0.06169929  0.52702947     0.12800
C268        C  0.30814204  0.04009107  0.55322274    -0.12700
N269        N  0.23104245  0.00959988  0.62296496     0.64500
H270        H  0.19931203  0.04884973  0.56582609     0.12300
N271        N  0.30761536  0.07951031  0.49536116     0.61100
H272        H  0.33830868  0.03638561  0.54786978     0.08500
O273        O  0.44142298  0.95356571  0.61342378    -0.40300
O274        O  0.42782150  0.51350775  0.60363001    -0.39500
O275        O  0.24806528  0.44573909  0.55684225    -0.39500
O276        O  0.24485479  0.91876648  0.61347208    -0.37200
O277        O  0.33745859  0.09857347  0.50085093    -0.38100
O278        O  0.29760100  0.07303420  0.46161326    -0.34300
O279        O  0.24872563  0.00436433  0.65360837    -0.35700
O280        O  0.19573644  0.00325842  0.62271393    -0.40000
C281        C  0.34355238  0.05208771  0.83621081    -0.13700
C282        C  0.30552780  0.05048030  0.84933902     0.16700
C283        C  0.29247311  0.51803634  0.87087664     0.03000
C284        C  0.31832846  0.48953561  0.88020480    -0.12200
C285        C  0.35733543  0.49403971  0.87225429    -0.03200
C286        C  0.37004501  0.02464105  0.84805597     0.02200
C287        C  0.28083434  0.08484709  0.84669174     0.09100
N288        N  0.25497495  0.51557645  0.88753656     0.65400
H289        H  0.30821198  0.46625090  0.89837682     0.18300
N290        N  0.40934314  0.02946866  0.83775131     0.75900
H291        H  0.35329656  0.07628561  0.81908438     0.09900
C292        C  0.29332310  0.12063387  0.86006760     0.03600
C293        C  0.26663272  0.14882033  0.86853512    -0.05200
C294        C  0.22748026  0.14094555  0.86749507    -0.23500
C295        C  0.21525575  0.10773482  0.84855576     0.12800
C296        C  0.24240587  0.08053585  0.83724132    -0.12700
N297        N  0.33194599  0.12723102  0.87053433     0.64500
H298        H  0.27682696  0.17472719  0.88159378     0.12300
N299        N  0.17564030  0.10008721  0.84293043     0.61100
H300        H  0.23300020  0.05410817  0.82460147     0.08500
O301        O  0.42546616  0.06129330  0.84233105    -0.40300
O302        O  0.42710606  0.50152613  0.82365794    -0.39500
O303        O  0.23585027  0.48527485  0.88420648    -0.39500
O304        O  0.24430254  0.03897433  0.91058215    -0.37200
O305        O  0.15354958  0.12673579  0.83332576    -0.38100
O306        O  0.16303731  0.06630307  0.84521886    -0.34300
O307        O  0.34909039  0.15671969  0.85818046    -0.35700
O308        O  0.34600702  0.10828801  0.89769138    -0.40000
C309        C  0.01525603  0.20457912  0.60809723    -0.13700
C310        C  0.00470949  0.24332417  0.60725265     0.16700
C311        C  0.46555587  0.25211961  0.61123470     0.03000
C312        C  0.43904706  0.22393095  0.60159718    -0.12200
C313        C  0.45165243  0.18740391  0.59103516    -0.03200
C314        C  0.98784576  0.17599681  0.60303491     0.02200
C315        C  0.03125541  0.27146606  0.58845244     0.09100
N316        N  0.45316818  0.29045810  0.61932327     0.65400
H317        H  0.40977411  0.23197010  0.59712970     0.18300
N318        N  0.99768053  0.13625648  0.60665583     0.75900
H319        H  0.04487288  0.19655024  0.60819041     0.09900
C320        C  0.07097605  0.27178023  0.59451771     0.03600
C321        C  0.09496976  0.29219409  0.56883500    -0.05200
C322        C  0.08011173  0.31350882  0.53837004    -0.23500
C323        C  0.04051489  0.31443002  0.53336306     0.12800
C324        C  0.01686420  0.29336075  0.55802043    -0.12700
N325        N  0.08722491  0.25240944  0.62674957     0.64500
H326        H  0.12529192  0.29270528  0.57351587     0.12300
N327        N  0.02382473  0.33507815  0.50223981     0.61100
H328        H  0.98693838  0.29236781  0.55154567     0.08500
O329        O  0.03039277  0.12709906  0.61736480    -0.40300
O330        O  0.97217016  0.11082492  0.60652538    -0.39500
O331        O  0.42015115  0.30130343  0.61091955    -0.39500
O332        O  0.97458697  0.31308485  0.63676820    -0.37200
O333        O  0.03591593  0.33027159  0.46847066    -0.38100
O334        O  0.99434397  0.35483947  0.50792361    -0.34300
O335        O  0.12055922  0.23930215  0.62455530    -0.35700
O336        O  0.06938636  0.25063284  0.65833833    -0.40000
C337        C  0.49784391  0.30081653  0.10610030    -0.13700
C338        C  0.03565165  0.30151475  0.09223356     0.16700
C339        C  0.04790676  0.27236999  0.06711651     0.03000
C340        C  0.02219366  0.24478122  0.05547294    -0.12200
C341        C  0.48352973  0.24681035  0.06560549    -0.03200
C342        C  0.47140281  0.27441380  0.09224000     0.02200
C343        C  0.06086247  0.33478498  0.09966572     0.09100
N344        N  0.08502854  0.27264519  0.04947245     0.65400
H345        H  0.03203398  0.22410529  0.03472946     0.18300
N346        N  0.43248420  0.27647145  0.10481133     0.75900
H347        H  0.48837011  0.32201034  0.12644241     0.09900
C348        C  0.04886971  0.37248409  0.09160104     0.03600
C349        C  0.07601707  0.40059400  0.08307802    -0.05200
C350        C  0.11469368  0.39103063  0.07966001    -0.23500
C351        C  0.12686596  0.35600522  0.09574120     0.12800
C352        C  0.09958362  0.32847310  0.10658644    -0.12700
N353        N  0.00975300  0.38159097  0.08610180     0.64500
H354        H  0.06601159  0.42817406  0.07318423     0.12300
N355        N  0.16637460  0.34641045  0.09726130     0.61100
H356        H  0.10895999  0.30039865  0.11571353     0.08500
O357        O  0.41589381  0.30836791  0.10655814    -0.40300
O358        O  0.41532522  0.24673478  0.11650575    -0.39500
O359        O  0.10478925  0.24258939  0.04961543    -0.39500
O360        O  0.09495839  0.30021813  0.02792760    -0.37200
O361        O  0.18989781  0.36977505  0.11062478    -0.38100
O362        O  0.17800148  0.31489947  0.08438329    -0.34300
O363        O  0.99355406  0.40530696  0.10781836    -0.35700
O364        O  0.99373546  0.37165424  0.05582541    -0.40000
C365        C  0.45673863  0.72377155  0.04287876     0.80900
N366        N  0.42376043  0.73883856  0.03025685    -0.77400
C367        C  0.40376695  0.72116597  0.00258337     0.83300
N368        N  0.41773470  0.68857402  0.98621828    -0.77300
C369        C  0.45072237  0.67326800  0.99945568     0.83400
N370        N  0.46960986  0.69101637  0.02737504    -0.79100
C371        C  0.43607337  0.67082184  0.55606164     0.80900
N372        N  0.45642315  0.64488003  0.53615289    -0.77400
C373        C  0.44808565  0.63561839  0.49968478     0.83300
N374        N  0.41914787  0.65440358  0.48156000    -0.77300
C375        C  0.39865787  0.68115295  0.50174399     0.83400
N376        N  0.40729116  0.68851472  0.53846851    -0.79100
C377        C  0.38405417  0.97133628  0.89549646     0.80900
N378        N  0.37096056  0.93883503  0.91215957    -0.77400
C379        C  0.38870640  0.92236258  0.94187291     0.83300
N380        N  0.42101394  0.93850702  0.95557949    -0.77300
C381        C  0.43555775  0.97055963  0.93777975     0.83400
N382        N  0.41646630  0.98714633  0.90853084    -0.79100
C383        C  0.38847429  0.91932959  0.55208910     0.80900
N384        N  0.41694256  0.94024498  0.53604485    -0.77400
C385        C  0.42970835  0.93389399  0.49990606     0.83300
N386        N  0.41326188  0.90584283  0.47856365    -0.77300
C387        C  0.38491941  0.88392009  0.49507671     0.83400
N388        N  0.37291681  0.89131584  0.53122658    -0.79100
O389        O  0.50015041  0.99008444  0.93439421    -0.77800
C390        C  0.04856152  0.56590995  0.86307387     0.83200
O391        O  0.12039337  0.02135493  0.00135092    -0.78900
O392        O  0.08974347  0.64000424  0.93627582    -0.80400
O393        O  0.46643806  0.60823043  0.00168068    -0.80200
O394        O  0.46251134  0.51457767  0.98018057    -0.78800
Zn395      Zn  0.05068927  0.51938945  0.93671617     1.55700
O396        O  0.99442113  0.64481804  0.95654480    -0.80200
Cd397      Cd  0.99682262  0.55750179  0.00110590     1.59700
Cd398      Cd  0.08791763  0.57068427  0.00339797     1.59600
O399        O  0.01110211  0.54768993  0.05746017    -0.80200
O400        O  0.04380639  0.56364371  0.96908736    -1.90700
Cd401      Cd  0.03858973  0.61004167  0.93639552     1.59900
O402        O  0.06908266  0.57295550  0.06046846    -0.80200
O403        O  0.03291265  0.59405150  0.88000762    -0.78800
C404        C  0.11806582  0.99012423  0.98312795     0.83700
C405        C  0.46833657  0.99152325  0.95252760     0.83400
O406        O  0.06125207  0.53730518  0.88198178    -0.77800
C407        C  0.46962437  0.63972130  0.98325617     0.84200
O408        O  0.09351115  0.98509998  0.95714135    -0.77900
C409        C  0.03933428  0.55873739  0.07685095     0.84300
C410        C  0.11949799  0.63918788  0.95650602     0.84600
O411        O  0.12264933  0.61657962  0.98519202    -0.80300
O412        O  0.07697309  0.94664494  0.50186468    -0.77800
C413        C  0.05642833  0.53966854  0.57619809     0.83200
O414        O  0.45854142  0.48049632  0.45741701    -0.78900
O415        O  0.00846516  0.60984956  0.49294364    -0.80400
O416        O  0.13120790  0.55054039  0.44794522    -0.80200
O417        O  0.10969591  0.95661293  0.44788437    -0.78800
Zn418      Zn  0.03900639  0.48719379  0.51049283     1.55700
O419        O  0.10383223  0.60180857  0.47381255    -0.80200
Cd420      Cd  0.08742203  0.51213720  0.43690547     1.59700
Cd421      Cd  0.99304506  0.52918233  0.44382892     1.59600
O422        O  0.06875738  0.51816343  0.38100191    -0.80200
O423        O  0.04319682  0.52545892  0.47126137    -1.90700
Cd424      Cd  0.05513692  0.57530038  0.49560438     1.59900
O425        O  0.00637875  0.53082517  0.38522852    -0.80200
O426        O  0.06370022  0.56807558  0.55411893    -0.78800
C427        C  0.46130575  0.95860079  0.48655091     0.83700
C428        C  0.10161031  0.93600272  0.47728667     0.83400
O429        O  0.04562577  0.50777910  0.56307500    -0.77800
C430        C  0.13308480  0.58431648  0.46134276     0.84200
O431        O  0.48928037  0.96080187  0.50879849    -0.77900
C432        C  0.03690649  0.52549686  0.36544503     0.84300
C433        C  0.47425416  0.60743633  0.48194685     0.84600
O434        O  0.46268100  0.57925835  0.46205840    -0.80300
C435        C  0.13766829  0.91179389  0.04993132     0.80900
N436        N  0.12268528  0.94255904  0.03217193    -0.77400
C437        C  0.13800583  0.95702054  0.99938532     0.83300
N438        N  0.16970548  0.94043258  0.98350555    -0.77300
C439        C  0.18575825  0.90983578  0.00194158     0.83400
N440        N  0.16923619  0.89567796  0.03448647    -0.79100
C441        C  0.10568507  0.83772687  0.51418048     0.80900
N442        N  0.09482691  0.87357472  0.50532685    -0.77400
C443        C  0.11701715  0.89726467  0.48370955     0.83300
N444        N  0.15192191  0.88497432  0.47125382    -0.77300
C445        C  0.16306953  0.84839212  0.48011723     0.83400
N446        N  0.13990192  0.82519447  0.50158674    -0.79100
C447        C  0.20206758  0.66212889  0.89445301     0.80900
N448        N  0.17077042  0.64523673  0.91021580    -0.77400
C449        C  0.15321859  0.65990273  0.94167034     0.83300
N450        N  0.16809953  0.69146606  0.95880261    -0.77300
C451        C  0.19926784  0.70893551  0.94237832     0.83400
N452        N  0.21559298  0.69410989  0.91065275    -0.79100
C453        C  0.22562812  0.58822709  0.50595334     0.80900
N454        N  0.19280803  0.57567418  0.49132776    -0.77400
C455        C  0.17074000  0.59935481  0.47032308     0.83300
N456        N  0.18136422  0.63680925  0.46449306    -0.77300
C457        C  0.21514076  0.64908269  0.47883421     0.83400
N458        N  0.23644318  0.62465696  0.49960973    -0.79100
O459        O  0.26736822  0.82918685  0.88467169    -0.77800
C460        C  0.21965521  0.74110875  0.95907188     0.83200
O461        O  0.24961893  0.89057508  0.00717555    -0.78900
O462        O  0.27776484  0.78420290  0.06165157    -0.80400
O463        O  0.37445584  0.76466019  0.96046146    -0.80200
O464        O  0.32455749  0.80217036  0.88332689    -0.78800
Zn465      Zn  0.24990494  0.82224625  0.94040585     1.55700
O466        O  0.33877926  0.73829590  0.00722109    -0.80200
Cd467      Cd  0.33982202  0.80817236  0.94002139     1.59700
Cd468      Cd  0.30030054  0.85954022  0.00677397     1.59600
O469        O  0.37102851  0.85816658  0.94002802    -0.80200
O470        O  0.29356139  0.81482952  0.97279264    -1.90700
Cd471      Cd  0.28729575  0.76830674  0.00565956     1.59900
O472        O  0.34540168  0.89397278  0.98628684    -0.80200
O473        O  0.24305922  0.73438606  0.98574663    -0.78800
C474        C  0.21950465  0.88926755  0.98742694     0.83700
C475        C  0.29615098  0.81634754  0.86600364     0.83400
O476        O  0.21913969  0.77300390  0.94105079    -0.77800
C477        C  0.37002735  0.74107753  0.98824644     0.84200
O478        O  0.21603361  0.86606884  0.95976102    -0.77900
C479        C  0.36934491  0.88904911  0.95885877     0.84300
C480        C  0.29201283  0.81165100  0.08031520     0.84600
O481        O  0.30682404  0.84072818  0.06317191    -0.80300
O482        O  0.20404710  0.80186597  0.45389340    -0.77800
C483        C  0.29729359  0.78084037  0.36776612     0.83200
O484        O  0.24873630  0.69881985  0.50520961    -0.78900
O485        O  0.37186355  0.72595767  0.45689220    -0.80400
O486        O  0.32534577  0.86451122  0.47544803    -0.80200
O487        O  0.22978591  0.85015205  0.48565912    -0.78800
Zn488      Zn  0.24710953  0.76553086  0.43951546     1.55700
O489        O  0.37290347  0.82413135  0.46398658    -0.80200
Cd490      Cd  0.28349486  0.82796439  0.49556244     1.59700
Cd491      Cd  0.28987925  0.73853707  0.51263599     1.59200
O492        O  0.28930870  0.82396061  0.55510475    -0.80200
O493        O  0.29001790  0.77689851  0.47162492    -1.90700
Cd494      Cd  0.34085512  0.77671926  0.44395592     1.59900
O495        O  0.28561992  0.76133640  0.56657576    -0.80200
O496        O  0.32855510  0.78238922  0.38588713    -0.78800
C497        C  0.22948040  0.68866280  0.47669677     0.83700
C498        C  0.20120112  0.83374655  0.47116933     0.83400
O499        O  0.26543568  0.77462949  0.38498614    -0.77800
C500        C  0.36069758  0.85692287  0.47445229     0.84200
O501        O  0.22679141  0.70995174  0.44698199    -0.77900
C502        C  0.28777583  0.79554362  0.57833625     0.84300
C503        C  0.36767958  0.70487881  0.48683021     0.84600
O504        O  0.33932782  0.70845517  0.50954727    -0.80300
C505        C  0.32697657  0.80956929  0.76064725    -0.13700
C506        C  0.29328744  0.81902714  0.74207006     0.16700
C507        C  0.26080843  0.82860089  0.76424609     0.03000
C508        C  0.26253962  0.82755953  0.80434952    -0.12200
C509        C  0.29615522  0.81764914  0.82321742    -0.03200
C510        C  0.32878459  0.80893703  0.80064837     0.02200
C511        C  0.29154565  0.81496041  0.69981550     0.09100
N512        N  0.22600999  0.83971523  0.74649782     0.65400
H513        H  0.23730070  0.83474206  0.82084318     0.18300
N514        N  0.36403536  0.79910651  0.81770569     0.75900
H515        H  0.35192346  0.80182855  0.74393825     0.09900
C516        C  0.31561208  0.83587629  0.67432376     0.03600
C517        C  0.31414399  0.82892118  0.63482000    -0.05200
C518        C  0.28866013  0.80211706  0.62013004    -0.23500
C519        C  0.26514295  0.78104743  0.64576144     0.12800
C520        C  0.26670806  0.78760312  0.68508334    -0.12700
N521        N  0.34117675  0.86455039  0.68785828     0.64500
H522        H  0.33311238  0.84397975  0.61573995     0.12300
N523        N  0.23913453  0.75309418  0.63226449     0.61100
H524        H  0.24870540  0.77101489  0.70424562     0.08500
O525        O  0.38753502  0.82504538  0.82543376    -0.40300
O526        O  0.37384780  0.76450962  0.82007596    -0.39500
O527        O  0.19446466  0.82925949  0.76085772    -0.39500
O528        O  0.22654337  0.86245531  0.71823679    -0.37200
O529        O  0.24790662  0.71815524  0.63325900    -0.38100
O530        O  0.20575149  0.76276906  0.62408269    -0.34300
O531        O  0.37354947  0.86886424  0.67228123    -0.35700
O532        O  0.33010945  0.88814626  0.71267814    -0.40000
C533        C  0.32849031  0.79301262  0.26299900    -0.13700
C534        C  0.29426491  0.80398360  0.24622007     0.16700
C535        C  0.26120823  0.80716874  0.26938742     0.03000
C536        C  0.26304142  0.79867439  0.30855772    -0.12200
C537        C  0.29722992  0.78746640  0.32560499    -0.03200
C538        C  0.33033598  0.78437990  0.30219724     0.02200
C539        C  0.29278202  0.80791612  0.20395632     0.09100
N540        N  0.22579979  0.81961782  0.25374690     0.65400
H541        H  0.23754767  0.80187806  0.32600961     0.18300
N542        N  0.36548180  0.77061394  0.31707209     0.75900
H543        H  0.35365204  0.78946272  0.24510222     0.09900
C544        C  0.31616568  0.83393840  0.18324803     0.03600
C545        C  0.31546869  0.83442869  0.14312426    -0.05200
C546        C  0.29181673  0.80954201  0.12292788    -0.23500
C547        C  0.26850679  0.78342273  0.14407923     0.12800
C548        C  0.26913311  0.78316427  0.18404474    -0.12700
N549        N  0.34019357  0.86042246  0.20249508     0.64500
H550        H  0.33349757  0.85465760  0.12766426     0.12300
N551        N  0.24426950  0.75655788  0.12583460     0.61100
H552        H  0.25164068  0.76261358  0.19975447     0.08500
O553        O  0.39622819  0.78732398  0.30806915    -0.40300
O554        O  0.36658601  0.73842362  0.33366602    -0.39500
O555        O  0.19484566  0.80550725  0.26609803    -0.39500
O556        O  0.22507420  0.84695471  0.22992526    -0.37200
O557        O  0.25867154  0.72719266  0.11083944    -0.38100
O558        O  0.20906180  0.75696399  0.13323328    -0.34300
O559        O  0.37332654  0.86725443  0.18978102    -0.35700
O560        O  0.32742249  0.87924999  0.23045070    -0.40000
C561        C  0.08335131  0.57301956  0.67546557    -0.13700
C562        C  0.05571399  0.55416303  0.69811563     0.16700
C563        C  0.02959460  0.52950402  0.68083187     0.03000
C564        C  0.03155779  0.52418511  0.64126847    -0.12200
C565        C  0.05839937  0.54386296  0.61820911    -0.03200
C566        C  0.08483132  0.56819222  0.63572264     0.02200
C567        C  0.05566089  0.55872491  0.74005041     0.09100
N568        N  0.50098524  0.50965910  0.70305351     0.65400
H569        H  0.51089183  0.50563647  0.62828482     0.18300
N570        N  0.11360141  0.58768689  0.61369076     0.75900
H571        H  0.10389485  0.59148857  0.68874537     0.09900
C572        C  0.07827634  0.53535238  0.76324699     0.03600
C573        C  0.07632607  0.53907890  0.80301900    -0.05200
C574        C  0.05197374  0.56585423  0.82051263    -0.23500
C575        C  0.03054203  0.59056036  0.79675854     0.12800
C576        C  0.03247497  0.58647934  0.75693542    -0.12700
N577        N  0.10323801  0.00768906  0.74646371     0.64500
H578        H  0.09376910  0.02062865  0.82001136     0.12300
N579        N  0.00639135  0.61963258  0.81223407     0.61100
H580        H  0.01556860  0.60497634  0.73899084     0.08500
O581        O  0.14689315  0.07297932  0.61115033    -0.40300
O582        O  0.10969833  0.62263571  0.60543033    -0.39500
O583        O  0.47841502  0.52801772  0.72438053    -0.39500
O584        O  0.49533231  0.47446027  0.69797904    -0.37200
O585        O  0.02108469  0.64888575  0.82675713    -0.38100
O586        O  0.97178628  0.62039801  0.80352896    -0.34300
O587        O  0.13834022  0.00860264  0.75301314    -0.35700
O588        O  0.08967785  0.98024749  0.72797108    -0.40000
C589        C  0.06302901  0.51942368  0.25932080    -0.13700
C590        C  0.03609821  0.54387208  0.24302709     0.16700
C591        C  0.00791054  0.56033544  0.26694929     0.03000
C592        C  0.00777944  0.55246330  0.30642757    -0.12200
C593        C  0.03558851  0.52906234  0.32298442    -0.03200
C594        C  0.06303411  0.51166742  0.29873759     0.02200
C595        C  0.03675299  0.54979563  0.20072606     0.09100
N596        N  0.48015974  0.58618844  0.25193702     0.65400
H597        H  0.48673508  0.56622859  0.32452498     0.18300
N598        N  0.09020696  0.48497240  0.31328014     0.75900
H599        H  0.08378131  0.50547684  0.24101067     0.09900
C600        C  0.06994291  0.56195313  0.18067709     0.03600
C601        C  0.07008464  0.56413632  0.14055742    -0.05200
C602        C  0.03769992  0.55492001  0.11951229    -0.23500
C603        C  0.00448848  0.54280885  0.13991113     0.12800
C604        C  0.00443203  0.54048324  0.17993116    -0.12700
N605        N  0.10350548  0.57283072  0.20058808     0.64500
H606        H  0.09575257  0.57369095  0.12580117     0.12300
N607        N  0.97068502  0.03236946  0.12052382     0.61100
H608        H  0.97907909  0.53033486  0.19490157     0.08500
O609        O  0.12437673  0.48655221  0.30179653    -0.40300
O610        O  0.07913739  0.45666441  0.33324803    -0.39500
O611        O  0.44619872  0.58471445  0.26407488    -0.39500
O612        O  0.49015094  0.61277571  0.22920564    -0.37200
O613        O  0.96877598  0.00017789  0.10475043    -0.38100
O614        O  0.44067217  0.05135316  0.12593013    -0.34300
O615        O  0.13588065  0.56349565  0.18777624    -0.35700
O616        O  0.10111759  0.59427519  0.22928368    -0.40000
C617        C  0.34943972  0.49639058  0.61123872    -0.13700
C618        C  0.31135308  0.48909600  0.60228146     0.16700
C619        C  0.30059369  0.95074904  0.59623400     0.03000
C620        C  0.32852709  0.92345553  0.58905046    -0.12200
C621        C  0.36681361  0.93456570  0.58544149    -0.03200
C622        C  0.37759455  0.46928974  0.60261897     0.02200
C623        C  0.28945232  0.52060013  0.58443946     0.09100
N624        N  0.26194512  0.94042372  0.58972783     0.65400
H625        H  0.31932312  0.89631719  0.57841288     0.18300
N626        N  0.41702188  0.47912371  0.60635906     0.75900
H627        H  0.35777914  0.52501563  0.61879036     0.09900
C628        C  0.24986651  0.52514779  0.59018363     0.03600
C629        C  0.22929070  0.54574510  0.56278501    -0.05200
C630        C  0.24774922  0.56408490  0.53177912    -0.23500
C631        C  0.28753859  0.56264057  0.52831611     0.12800
C632        C  0.30786237  0.54088405  0.55442324    -0.12700
N633        N  0.23047460  0.50913788  0.62326160     0.64500
H634        H  0.19888262  0.54842077  0.56605510     0.12300
N635        N  0.30752005  0.58103232  0.49707268     0.61100
H636        H  0.33809469  0.53750195  0.54926407     0.08500
O637        O  0.44107223  0.45350804  0.61373976    -0.40300
O638        O  0.42815226  0.01355131  0.60326343    -0.39500
O639        O  0.24825482  0.94535489  0.55699159    -0.39500
O640        O  0.24447501  0.41864578  0.61307446    -0.37200
O641        O  0.33697287  0.60050428  0.50314766    -0.38100
O642        O  0.29805708  0.57472314  0.46312275    -0.34300
O643        O  0.24803674  0.50357390  0.65392361    -0.35700
O644        O  0.19516740  0.50283245  0.62281887    -0.40000
C645        C  0.34302251  0.55197052  0.83643033    -0.13700
C646        C  0.30506982  0.55057696  0.84980116     0.16700
C647        C  0.29285262  0.01762387  0.86986055     0.03000
C648        C  0.31871253  0.98907123  0.87902794    -0.12200
C649        C  0.35777625  0.99383134  0.87154379    -0.03200
C650        C  0.36952232  0.52457209  0.84837151     0.02200
C651        C  0.28036049  0.58488781  0.84675016     0.09100
N652        N  0.25524819  0.01485746  0.88621182     0.65400
H653        H  0.30850567  0.96553352  0.89681321     0.18300
N654        N  0.40875239  0.52913079  0.83767849     0.75900
H655        H  0.35270580  0.57594748  0.81895716     0.09900
C656        C  0.29283823  0.62084539  0.85967861     0.03600
C657        C  0.26611610  0.64905094  0.86799095    -0.05200
C658        C  0.22697554  0.64104134  0.86723596    -0.23500
C659        C  0.21474862  0.60765774  0.84859074     0.12800
C660        C  0.24191334  0.58040217  0.83745454    -0.12700
N661        N  0.33150068  0.62763507  0.86988927     0.64500
H662        H  0.27630372  0.67510848  0.88076168     0.12300
N663        N  0.17512541  0.59989900  0.84313161     0.61100
H664        H  0.23251981  0.55381244  0.82513698     0.08500
O665        O  0.42508080  0.56090762  0.84188651    -0.40300
O666        O  0.42797052  0.00205161  0.82372144    -0.39500
O667        O  0.23617163  0.98462617  0.88218806    -0.39500
O668        O  0.24419493  0.54015893  0.91150672    -0.37200
O669        O  0.15294859  0.62646157  0.83349195    -0.38100
O670        O  0.16259837  0.56609462  0.84557816    -0.34300
O671        O  0.34852257  0.65704619  0.85717033    -0.35700
O672        O  0.34573742  0.60898712  0.89715059    -0.40000
C673        C  0.01540105  0.70457621  0.60813769    -0.13700
C674        C  0.00498411  0.74335788  0.60723476     0.16700
C675        C  0.46586878  0.75229010  0.61130825     0.03000
C676        C  0.43923909  0.72418532  0.60175223    -0.12200
C677        C  0.45169398  0.68758675  0.59126574    -0.03200
C678        C  0.98786674  0.67607952  0.60323468     0.02200
C679        C  0.03156043  0.77139801  0.58831447     0.09100
N680        N  0.45363732  0.79067857  0.61939813     0.65400
H681        H  0.40998932  0.73232246  0.59730791     0.18300
N682        N  0.99754900  0.63630732  0.60694111     0.75900
H683        H  0.04498941  0.69643996  0.60816769     0.09900
C684        C  0.07129721  0.77164257  0.59427555     0.03600
C685        C  0.09525764  0.79208687  0.56858499    -0.05200
C686        C  0.08035405  0.81348149  0.53819579    -0.23500
C687        C  0.04074873  0.81440529  0.53324197     0.12800
C688        C  0.01713253  0.79331796  0.55791823    -0.12700
N689        N  0.08760152  0.75217215  0.62641339     0.64500
H690        H  0.12559017  0.79256114  0.57321075     0.12300
N691        N  0.02401042  0.83508445  0.50216215     0.61100
H692        H  0.98719259  0.79235117  0.55150150     0.08500
O693        O  0.03025193  0.62703868  0.61758080    -0.40300
O694        O  0.97193522  0.61097720  0.60693016    -0.39500
O695        O  0.42062769  0.80162715  0.61109472    -0.39500
O696        O  0.97518577  0.81324389  0.63676317    -0.37200
O697        O  0.03614094  0.83041388  0.46838555    -0.38100
O698        O  0.99444557  0.85471145  0.50787625    -0.34300
O699        O  0.12081744  0.73879761  0.62401222    -0.35700
O700        O  0.06992544  0.75050351  0.65809645    -0.40000
C701        C  0.49747870  0.80086938  0.10604428    -0.13700
C702        C  0.03532516  0.80146393  0.09228055     0.16700
C703        C  0.04761896  0.77217003  0.06735773     0.03000
C704        C  0.02189944  0.74457696  0.05574495    -0.12200
C705        C  0.48320068  0.74673995  0.06570223    -0.03200
C706        C  0.47103500  0.77445832  0.09219960     0.02200
C707        C  0.06052843  0.83478064  0.09956363     0.09100
N708        N  0.08479559  0.77229486  0.04984005     0.65400
H709        H  0.03178103  0.72379510  0.03512783     0.18300
N710        N  0.43207847  0.77663145  0.10463245     0.75900
H711        H  0.48797746  0.82216095  0.12627023     0.09900
C712        C  0.04853565  0.87243544  0.09128899     0.03600
C713        C  0.07568092  0.90051620  0.08266083    -0.05200
C714        C  0.11436939  0.89096611  0.07935572    -0.23500
C715        C  0.12653091  0.85600687  0.09558654     0.12800
C716        C  0.09924611  0.82851945  0.10654731    -0.12700
N717        N  0.00942478  0.88150006  0.08569435     0.64500
H718        H  0.06567273  0.92804735  0.07263429     0.12300
N719        N  0.16603552  0.84642086  0.09717123     0.61100
H720        H  0.10862468  0.80049579  0.11582806     0.08500
O721        O  0.41558984  0.80858188  0.10637241    -0.40300
O722        O  0.41477385  0.74693588  0.11621094    -0.39500
O723        O  0.10454328  0.74223406  0.05029854    -0.39500
O724        O  0.09479473  0.79968256  0.02808899    -0.37200
O725        O  0.18953184  0.86979238  0.11056830    -0.38100
O726        O  0.17768498  0.81490667  0.08432150    -0.34300
O727        O  0.99315373  0.90521776  0.10735538    -0.35700
O728        O  0.99347888  0.87150432  0.05539871    -0.40000
C729        C  0.95702699  0.22381137  0.04286077     0.80900
N730        N  0.92396187  0.23882059  0.03039734    -0.77400
C731        C  0.90387500  0.22112075  0.00281063     0.83300
N732        N  0.91782924  0.18856000  0.98637315    -0.77300
C733        C  0.95090760  0.17331150  0.99944666     0.83400
N734        N  0.96989776  0.19109124  0.02727814    -0.79100
C735        C  0.93612993  0.17068652  0.55576295     0.80900
N736        N  0.95653499  0.14480890  0.53582373    -0.77400
C737        C  0.94822946  0.13560670  0.49932838     0.83300
N738        N  0.91928968  0.15439520  0.48120964    -0.77300
C739        C  0.89876635  0.18109344  0.50142114     0.83400
N740        N  0.90735118  0.18838102  0.53816964    -0.79100
C741        C  0.88374744  0.47149453  0.89598583     0.80900
N742        N  0.87076380  0.43890930  0.91255675    -0.77400
C743        C  0.88867662  0.42231884  0.94209710     0.83300
N744        N  0.92102791  0.43843295  0.95572726    -0.77300
C745        C  0.93545135  0.47058364  0.93801788     0.83400
N746        N  0.91620242  0.48729093  0.90893807    -0.79100
C747        C  0.88821107  0.41940108  0.55230287     0.80900
N748        N  0.91666749  0.44034012  0.53626317    -0.77400
C749        C  0.92948543  0.43394504  0.50014542     0.83300
N750        N  0.91308830  0.40584570  0.47881940    -0.77300
C751        C  0.88474880  0.38391727  0.49533188     0.83400
N752        N  0.87272224  0.39133827  0.53146299    -0.79100
O753        O  0.00009185  0.48996855  0.93470321    -0.77800
C754        C  0.54870501  0.06614524  0.86279864     0.83200
O755        O  0.62040922  0.52139598  0.00155716    -0.78900
O756        O  0.58990086  0.14008522  0.93613407    -0.80400
O757        O  0.96649980  0.10823185  0.00148112    -0.80200
O758        O  0.96261498  0.01451108  0.98000971    -0.78800
Zn759      Zn  0.55075670  0.01949419  0.93640263     1.55700
O760        O  0.49460492  0.14492074  0.95649615    -0.80200
Cd761      Cd  0.49690207  0.05750571  0.00087342     1.59700
Cd762      Cd  0.58798217  0.07067734  0.00315834     1.59600
O763        O  0.51120216  0.04773242  0.05723059    -0.80200
O764        O  0.54387930  0.06369750  0.96883230    -1.90700
Cd765      Cd  0.53872267  0.11015503  0.93620788     1.59900
O766        O  0.56916483  0.07303615  0.06021063    -0.80200
O767        O  0.53306632  0.09427731  0.87976565    -0.78800
C768        C  0.61808631  0.49013782  0.98337480     0.83700
C769        C  0.96824433  0.49152016  0.95276111     0.83400
O770        O  0.56134312  0.03749309  0.88167711    -0.77800
C771        C  0.96976851  0.13977851  0.98316446     0.84200
O772        O  0.59348476  0.48505172  0.95744631    -0.77900
C773        C  0.53942631  0.05882312  0.07660815     0.84300
C774        C  0.61965791  0.13917387  0.95635616     0.84600
O775        O  0.62278330  0.11649674  0.98498637    -0.80300
O776        O  0.57678628  0.44654727  0.50194622    -0.77800
C777        C  0.55645466  0.03996662  0.57587182     0.83200
O778        O  0.95871844  0.98043264  0.45713798    -0.78900
O779        O  0.50865049  0.10997775  0.49242985    -0.80400
O780        O  0.63127208  0.05037362  0.44753327    -0.80200
O781        O  0.60972093  0.45667961  0.44813066    -0.78800
Zn782      Zn  0.53914149  0.98729619  0.51028814     1.55700
O783        O  0.60402455  0.10173746  0.47334804    -0.80200
Cd784      Cd  0.58744756  0.01204511  0.43658907     1.59700
Cd785      Cd  0.49316082  0.02915079  0.44354298     1.59600
O786        O  0.56880829  0.01806902  0.38069411    -0.80200
O787        O  0.54330017  0.02547088  0.47096875    -1.90700
Cd788      Cd  0.55527735  0.07536971  0.49517704     1.59900
O789        O  0.50645976  0.03084676  0.38493936    -0.80200
O790        O  0.56379102  0.06829217  0.55371190    -0.78800
C791        C  0.96111386  0.45862422  0.48680279     0.83700
C792        C  0.60151496  0.43597119  0.47743466     0.83400
O793        O  0.54564108  0.00804029  0.56284007    -0.77800
C794        C  0.63322579  0.08416112  0.46087807     0.84200
O795        O  0.98910773  0.46075624  0.50903216    -0.77900
C796        C  0.53697375  0.02548141  0.36514758     0.84300
C797        C  0.97440552  0.10746295  0.48155899     0.84600
O798        O  0.96280548  0.07919960  0.46180638    -0.80300
C799        C  0.63791746  0.41187469  0.05018855     0.80900
N800        N  0.62288382  0.44263264  0.03245995    -0.77400
C801        C  0.63810677  0.45707202  0.99961701     0.83300
N802        N  0.66975246  0.44046128  0.98364215    -0.77300
C803        C  0.68585636  0.40987332  0.00204944     0.83400
N804        N  0.66943383  0.39574833  0.03465431    -0.79100
C805        C  0.60547938  0.33769821  0.51434043     0.80900
N806        N  0.59465189  0.37353833  0.50542854    -0.77400
C807        C  0.61689055  0.39720893  0.48384112     0.83300
N808        N  0.65181542  0.38489269  0.47146153    -0.77300
C809        C  0.66292784  0.34830473  0.48037059     0.83400
N810        N  0.63971308  0.32513844  0.50182285    -0.79100
C811        C  0.70246743  0.16203687  0.89460530     0.80900
N812        N  0.67110142  0.14516173  0.91024463    -0.77400
C813        C  0.65340922  0.15987829  0.94159939     0.83300
N814        N  0.66821211  0.19146188  0.95875808    -0.77300
C815        C  0.69945335  0.20890168  0.94245759     0.83400
N816        N  0.71592116  0.19403444  0.91082776    -0.79100
C817        C  0.72593739  0.08780758  0.50512287     0.80900
N818        N  0.69305394  0.07533986  0.49057691    -0.77400
C819        C  0.67092100  0.09912420  0.46976342     0.83300
N820        N  0.68152468  0.13659831  0.46408532    -0.77300
C821        C  0.71536317  0.14878826  0.47833954     0.83400
N822        N  0.73675793  0.12425542  0.49889925    -0.79100
O823        O  0.76752096  0.32903329  0.88484679    -0.77800
C824        C  0.71976961  0.24108048  0.95920627     0.83200
O825        O  0.74969388  0.39058465  0.00725553    -0.78900
O826        O  0.77768942  0.28420470  0.06181633    -0.80400
O827        O  0.87454266  0.26462647  0.96074513    -0.80200
O828        O  0.82468927  0.30194513  0.88360686    -0.78800
Zn829      Zn  0.74999102  0.32221589  0.94057111     1.55700
O830        O  0.83887394  0.23825966  0.00750533    -0.80200
Cd831      Cd  0.83991424  0.30809835  0.94027132     1.59700
Cd832      Cd  0.80032332  0.35949565  0.00693060     1.59600
O833        O  0.87109573  0.35810132  0.94022732    -0.80200
O834        O  0.79362372  0.31477261  0.97298679    -1.90700
Cd835      Cd  0.78737099  0.26826258  0.00586349     1.59900
O836        O  0.84544697  0.39387830  0.98649892    -0.80200
O837        O  0.74319303  0.23434114  0.98585991    -0.78800
C838        C  0.71958781  0.38930176  0.98749852     0.83700
C839        C  0.79630739  0.31611355  0.86624162     0.83400
O840        O  0.71920574  0.27299699  0.94122862    -0.77800
C841        C  0.87012133  0.24104425  0.98852681     0.84200
O842        O  0.71610816  0.36609302  0.95984087    -0.77900
C843        C  0.86938896  0.38897370  0.95907036     0.84300
C844        C  0.79185432  0.31169679  0.08048003     0.84600
O845        O  0.80670990  0.34074949  0.06333936    -0.80300
O846        O  0.70389914  0.30178498  0.45408914    -0.77800
C847        C  0.79708727  0.28103463  0.36788033     0.83200
O848        O  0.74889099  0.19842269  0.50496357    -0.78900
O849        O  0.87191465  0.22602244  0.45671655    -0.80400
O850        O  0.82515011  0.36437794  0.47594138    -0.80200
O851        O  0.72963763  0.34992447  0.48606469    -0.78800
Zn852      Zn  0.74699678  0.26549786  0.43962343     1.55700
O853        O  0.87278061  0.32418703  0.46407592    -0.80200
Cd854      Cd  0.78334990  0.32769513  0.49589594     1.59700
Cd855      Cd  0.78991695  0.23820257  0.51252580     1.59200
O856        O  0.78916297  0.32339453  0.55542545    -0.80200
O857        O  0.78994779  0.27676618  0.47171028    -1.90700
Cd858      Cd  0.84077236  0.27676642  0.44398555     1.59900
O859        O  0.78570392  0.26070643  0.56657081    -0.80200
O860        O  0.82837355  0.28257600  0.38595783    -0.78800
C861        C  0.72960833  0.18839917  0.47642668     0.83700
C862        C  0.70105752  0.33361153  0.47146686     0.83400
O863        O  0.76526432  0.27475079  0.38513285    -0.77800
C864        C  0.86052313  0.35689558  0.47473757     0.84200
O865        O  0.72678705  0.20986862  0.44685881    -0.77900
C866        C  0.78775713  0.29485461  0.57851400     0.84300
C867        C  0.86775270  0.20479720  0.48655503     0.84600
O868        O  0.83938505  0.20821888  0.50926991    -0.80300
C869        C  0.82737025  0.30955203  0.76096790    -0.13700
C870        C  0.79339504  0.31778724  0.74234773     0.16700
C871        C  0.76060843  0.32642307  0.76447469     0.03000
C872        C  0.76237805  0.32579150  0.80457106    -0.12200
C873        C  0.79631330  0.31721383  0.82347363    -0.03200
C874        C  0.82921413  0.30938469  0.80096941     0.02200
C875        C  0.79181538  0.31360602  0.70010125     0.09100
N876        N  0.72542948  0.33613460  0.74668681     0.65400
H877        H  0.73690508  0.33219445  0.82103260     0.18300
N878        N  0.86482076  0.30111066  0.81809979     0.75900
H879        H  0.85256365  0.30256249  0.74430056     0.09900
C880        C  0.81515282  0.33530734  0.67459002     0.03600
C881        C  0.81360600  0.32857259  0.63504464    -0.05200
C882        C  0.78870508  0.30119979  0.62035298    -0.23500
C883        C  0.76601126  0.27926662  0.64601778     0.12800
C884        C  0.76773530  0.28556042  0.68537776    -0.12700
N885        N  0.84006410  0.36456302  0.68812081     0.64500
H886        H  0.83196344  0.34418891  0.61602778     0.12300
N887        N  0.74062529  0.25072084  0.63253867     0.61100
H888        H  0.75034846  0.26840179  0.70452501     0.08500
O889        O  0.88626829  0.32812867  0.82777358    -0.40300
O890        O  0.87699694  0.26722410  0.81882134    -0.39500
O891        O  0.69429250  0.32448823  0.76104476    -0.39500
O892        O  0.72512312  0.35878447  0.71836905    -0.37200
O893        O  0.74931227  0.21584565  0.63531716    -0.38100
O894        O  0.70782902  0.26004464  0.62201109    -0.34300
O895        O  0.87228367  0.36968865  0.67245573    -0.35700
O896        O  0.82850882  0.38782467  0.71304275    -0.40000
C897        C  0.82811364  0.29365770  0.26312357    -0.13700
C898        C  0.79376547  0.30426599  0.24637197     0.16700
C899        C  0.76068186  0.30707952  0.26955373     0.03000
C900        C  0.76262535  0.29858280  0.30871418    -0.12200
C901        C  0.79694159  0.28772795  0.32573315    -0.03200
C902        C  0.83006904  0.28502451  0.30230653     0.02200
C903        C  0.79225094  0.30820611  0.20411731     0.09100
N904        N  0.72512985  0.31914496  0.25394223     0.65400
H905        H  0.73710096  0.30149308  0.32617653     0.18300
N906        N  0.86537684  0.27166055  0.31714553     0.75900
H907        H  0.85330983  0.29039296  0.24521618     0.09900
C908        C  0.81547724  0.33438810  0.18343651     0.03600
C909        C  0.81490401  0.33479256  0.14331431    -0.05200
C910        C  0.79150641  0.30968443  0.12309216    -0.23500
C911        C  0.76829511  0.28345771  0.14421722     0.12800
C912        C  0.76882180  0.28325996  0.18418355    -0.12700
N913        N  0.83922719  0.36110776  0.20271130     0.64500
H914        H  0.83282955  0.35512980  0.12787676     0.12300
N915        N  0.74427733  0.25641183  0.12594605     0.61100
H916        H  0.75144662  0.26259671  0.19987563     0.08500
O917        O  0.89589783  0.28886143  0.30830130    -0.40300
O918        O  0.86690743  0.23936800  0.33349056    -0.39500
O919        O  0.69433135  0.30473160  0.26634349    -0.39500
O920        O  0.72410015  0.34644448  0.23009597    -0.37200
O921        O  0.75889569  0.22709497  0.11106479    -0.38100
O922        O  0.70903938  0.25664835  0.13319694    -0.34300
O923        O  0.87232345  0.36822988  0.19005878    -0.35700
O924        O  0.82623022  0.37984203  0.23062940    -0.40000
C925        C  0.58385183  0.07294107  0.67515534    -0.13700
C926        C  0.55589321  0.05454101  0.69779205     0.16700
C927        C  0.52939810  0.03033752  0.68048056     0.03000
C928        C  0.53126088  0.02500144  0.64092536    -0.12200
C929        C  0.55837688  0.04429576  0.61786653    -0.03200
C930        C  0.58519126  0.06820281  0.63538601     0.02200
C931        C  0.55583873  0.05904959  0.73974670     0.09100
N932        N  0.00055511  0.01089679  0.70271201     0.65400
H933        H  0.01034774  0.00672515  0.62795816     0.18300
N934        N  0.61417038  0.08738670  0.61334516     0.75900
H935        H  0.60467673  0.09107488  0.68844880     0.09900
C936        C  0.57851356  0.03570407  0.76293323     0.03600
C937        C  0.57656123  0.03943249  0.80271708    -0.05200
C938        C  0.55215769  0.06614767  0.82023052    -0.23500
C939        C  0.53069663  0.09083333  0.79649118     0.12800
C940        C  0.53260394  0.08675190  0.75666418    -0.12700
N941        N  0.60297679  0.50734204  0.74677555     0.64500
H942        H  0.59351957  0.52025850  0.82030927     0.12300
N943        N  0.50656892  0.11991031  0.81199148     0.61100
H944        H  0.51567023  0.10524094  0.73873789     0.08500
O945        O  0.64564138  0.57226080  0.60914876    -0.40300
O946        O  0.60944177  0.12164314  0.60287106    -0.39500
O947        O  0.97738786  0.02970803  0.72296111    -0.39500
O948        O  0.99535941  0.97548542  0.69863368    -0.37200
O949        O  0.52128443  0.14918550  0.82645049    -0.38100
O950        O  0.47193180  0.12063018  0.80340589    -0.34300
O951        O  0.63828039  0.50916227  0.75204127    -0.35700
O952        O  0.58931215  0.47910910  0.72956710    -0.40000
C953        C  0.56312625  0.01954330  0.25902942    -0.13700
C954        C  0.53624294  0.04406654  0.24277061     0.16700
C955        C  0.50808973  0.06055671  0.26670894     0.03000
C956        C  0.50792187  0.05261351  0.30617178    -0.12200
C957        C  0.53567072  0.02911601  0.32269565    -0.03200
C958        C  0.56309817  0.01171637  0.29843177     0.02200
C959        C  0.53687730  0.05001055  0.20047880     0.09100
N960        N  0.98041465  0.08650721  0.25172487     0.65400
H961        H  0.98690088  0.06639534  0.32428428     0.18300
N962        N  0.59021541  0.98494625  0.31294125     0.75900
H963        H  0.58385678  0.00558654  0.24070193     0.09900
C964        C  0.57006480  0.06214447  0.18041502     0.03600
C965        C  0.57019372  0.06429457  0.14029510    -0.05200
C966        C  0.53779897  0.05506381  0.11926997    -0.23500
C967        C  0.50458604  0.04299429  0.13968736     0.12800
C968        C  0.50454008  0.04070841  0.17970661    -0.12700
N969        N  0.60363621  0.07302531  0.20031114     0.64500
H970        H  0.59586078  0.07382595  0.12552201     0.12300
N971        N  0.47059652  0.53219169  0.12072882     0.61100
H972        H  0.47918745  0.03058405  0.19469430     0.08500
O973        O  0.62440484  0.98651855  0.30151945    -0.40300
O974        O  0.57908177  0.95659981  0.33281779    -0.39500
O975        O  0.94642616  0.08504945  0.26378158    -0.39500
O976        O  0.99050025  0.11314906  0.22909915    -0.37200
O977        O  0.46871413  0.50002871  0.10489495    -0.38100
O978        O  0.94056706  0.55113949  0.12616786    -0.34300
O979        O  0.63600834  0.06371191  0.18747440    -0.35700
O980        O  0.60125715  0.09445611  0.22901770    -0.40000
C981        C  0.84977804  0.99646573  0.61072858    -0.13700
C982        C  0.81169537  0.98907121  0.60186244     0.16700
C983        C  0.80024131  0.45082152  0.59633704     0.03000
C984        C  0.82816678  0.42353795  0.58908298    -0.12200
C985        C  0.86647056  0.43462882  0.58560552    -0.03200
C986        C  0.87793565  0.96931360  0.60229924     0.02200
C987        C  0.78982296  0.02036955  0.58366409     0.09100
N988        N  0.76162050  0.44055064  0.58960220     0.65400
H989        H  0.81897021  0.39650785  0.57831032     0.18300
N990        N  0.91736381  0.97916533  0.60601267     0.75900
H991        H  0.85810794  0.02517717  0.61804579     0.09900
C992        C  0.75030776  0.02522820  0.58964201     0.03600
C993        C  0.72967742  0.04577328  0.56224907    -0.05200
C994        C  0.74803651  0.06360218  0.53088521    -0.23500
C995        C  0.78777305  0.06169997  0.52703095     0.12800
C996        C  0.80814145  0.04009172  0.55322420    -0.12700
N997        N  0.73104164  0.00959982  0.62296584     0.64500
H998        H  0.69931122  0.04884985  0.56582705     0.12300
N999        N  0.80761494  0.07951132  0.49536290     0.61100
H1000       H  0.83830820  0.03638649  0.54787136     0.08500
O1001       O  0.94142274  0.95356672  0.61342378    -0.40300
O1002       O  0.92782082  0.51350860  0.60362958    -0.39500
O1003       O  0.74806485  0.44573814  0.55684339    -0.39500
O1004       O  0.74485445  0.91876712  0.61347374    -0.37200
O1005       O  0.83745770  0.09857510  0.50085311    -0.38100
O1006       O  0.79760123  0.07303495  0.46161485    -0.34300
O1007       O  0.74872471  0.00436412  0.65360930    -0.35700
O1008       O  0.69573563  0.00325835  0.62271466    -0.40000
C1009       C  0.84355211  0.05208793  0.83621096    -0.13700
C1010       C  0.80552746  0.05048038  0.84933894     0.16700
C1011       C  0.79247287  0.51803613  0.87087606     0.03000
C1012       C  0.81832829  0.48953546  0.88020426    -0.12200
C1013       C  0.85733531  0.49403987  0.87225421    -0.03200
C1014       C  0.87004478  0.02464139  0.84805629     0.02200
C1015       C  0.78083397  0.08484716  0.84669168     0.09100
N1016       N  0.75497456  0.51557587  0.88753556     0.65400
H1017       H  0.80821175  0.46625055  0.89837599     0.18300
N1018       N  0.90934295  0.02946928  0.83775201     0.75900
H1019       H  0.85329632  0.07628587  0.81908461     0.09900
C1020       C  0.79332275  0.12063397  0.86006749     0.03600
C1021       C  0.76663240  0.14882045  0.86853495    -0.05200
C1022       C  0.72747994  0.14094567  0.86749499    -0.23500
C1023       C  0.71525539  0.10773492  0.84855575     0.12800
C1024       C  0.74240549  0.08053593  0.83724129    -0.12700
N1025       N  0.83194562  0.12723113  0.87053424     0.64500
H1026       H  0.77682667  0.17472734  0.88159354     0.12300
N1027       N  0.67563993  0.10008729  0.84293051     0.61100
H1028       H  0.73299980  0.05410827  0.82460144     0.08500
O1029       O  0.92546593  0.06129378  0.84233279    -0.40300
O1030       O  0.92710607  0.50152753  0.82365748    -0.39500
O1031       O  0.73585001  0.48527428  0.88420478    -0.39500
O1032       O  0.74430186  0.03897379  0.91058174    -0.37200
O1033       O  0.65354918  0.12673586  0.83332585    -0.38100
O1034       O  0.66303695  0.06630316  0.84521902    -0.34300
O1035       O  0.84909011  0.15671965  0.85818016    -0.35700
O1036       O  0.84600654  0.10828831  0.89769149    -0.40000
C1037       C  0.51525570  0.20457900  0.60809740    -0.13700
C1038       C  0.50470916  0.24332406  0.60725276     0.16700
C1039       C  0.96555620  0.25211972  0.61123469     0.03000
C1040       C  0.93904736  0.22393107  0.60159723    -0.12200
C1041       C  0.95165272  0.18740406  0.59103511    -0.03200
C1042       C  0.48784543  0.17599670  0.60303509     0.02200
C1043       C  0.53125517  0.27146599  0.58845273     0.09100
N1044       N  0.95316854  0.29045823  0.61932326     0.65400
H1045       H  0.90977440  0.23197022  0.59712981     0.18300
N1046       N  0.49768009  0.13625638  0.60665659     0.75900
H1047       H  0.54487253  0.19655010  0.60819069     0.09900
C1048       C  0.57097579  0.27178016  0.59451814     0.03600
C1049       C  0.59496958  0.29219412  0.56883558    -0.05200
C1050       C  0.58011165  0.31350896  0.53837065    -0.23500
C1051       C  0.54051483  0.31443017  0.53336353     0.12800
C1052       C  0.51686407  0.29336079  0.55802074    -0.12700
N1053       N  0.58722455  0.25240928  0.62675001     0.64500
H1054       H  0.62529172  0.29270530  0.57351655     0.12300
N1055       N  0.52382475  0.33507841  0.50224031     0.61100
H1056       H  0.48693828  0.29236786  0.55154587     0.08500
O1057       O  0.53039176  0.12709913  0.61736740    -0.40300
O1058       O  0.47216979  0.11082479  0.60652521    -0.39500
O1059       O  0.92015150  0.30130356  0.61091961    -0.39500
O1060       O  0.47458654  0.31308470  0.63676833    -0.37200
O1061       O  0.53591609  0.33027204  0.46847118    -0.38100
O1062       O  0.49434390  0.35483961  0.50792408    -0.34300
O1063       O  0.62055893  0.23930215  0.62455587    -0.35700
O1064       O  0.56938586  0.25063253  0.65833869    -0.40000
C1065       C  0.99784480  0.30081665  0.10610037    -0.13700
C1066       C  0.53565090  0.30151418  0.09223389     0.16700
C1067       C  0.54790612  0.27236879  0.06711762     0.03000
C1068       C  0.52219295  0.24477999  0.05547423    -0.12200
C1069       C  0.98353057  0.24681100  0.06560487    -0.03200
C1070       C  0.97140374  0.27441392  0.09223998     0.02200
C1071       C  0.56086172  0.33478458  0.09966546     0.09100
N1072       N  0.58502810  0.27264334  0.04947402     0.65400
H1073       H  0.53203340  0.22410360  0.03473128     0.18300
N1074       N  0.93248527  0.27647095  0.10481194     0.75900
H1075       H  0.98837111  0.32201005  0.12644295     0.09900
C1076       C  0.54886892  0.37248356  0.09160015     0.03600
C1077       C  0.57601625  0.40059342  0.08307688    -0.05200
C1078       C  0.61469290  0.39103014  0.07965921    -0.23500
C1079       C  0.62686519  0.35600490  0.09574077     0.12800
C1080       C  0.59958287  0.32847289  0.10658635    -0.12700
N1081       N  0.50975223  0.38159028  0.08610058     0.64500
H1082       H  0.56601073  0.42817334  0.07318272     0.12300
N1083       N  0.66637383  0.34641018  0.09726100     0.61100
H1084       H  0.60895928  0.30039860  0.11571390     0.08500
O1085       O  0.91589480  0.30836728  0.10656033    -0.40300
O1086       O  0.91532653  0.24673378  0.11650541    -0.39500
O1087       O  0.60478871  0.24258748  0.04961821    -0.39500
O1088       O  0.59495825  0.30021555  0.02792837    -0.37200
O1089       O  0.68989692  0.36977472  0.11062479    -0.38100
O1090       O  0.67800082  0.31489933  0.08438277    -0.34300
O1091       O  0.49355303  0.40530624  0.10781699    -0.35700
O1092       O  0.49373498  0.37165344  0.05582408    -0.40000
C1093       C  0.95673949  0.72377206  0.04287844     0.80900
N1094       N  0.92376107  0.73883889  0.03025689    -0.77400
C1095       C  0.90376729  0.72116610  0.00258376     0.83300
N1096       N  0.91773496  0.68857412  0.98621864    -0.77300
C1097       C  0.95072289  0.67326832  0.99945564     0.83400
N1098       N  0.96961070  0.69101690  0.02737465    -0.79100
C1099       C  0.93607384  0.67082214  0.55606153     0.80900
N1100       N  0.95642359  0.64488027  0.53615286    -0.77400
C1101       C  0.94808613  0.63561855  0.49968476     0.83300
N1102       N  0.91914835  0.65440371  0.48155993    -0.77300
C1103       C  0.89865841  0.68115318  0.50174382     0.83400
N1104       N  0.90729169  0.68851505  0.53846833    -0.79100
C1105       C  0.88405388  0.97133657  0.89549678     0.80900
N1106       N  0.87096021  0.93883541  0.91216003    -0.77400
C1107       C  0.88870614  0.92236294  0.94187330     0.83300
N1108       N  0.92101383  0.93850727  0.95557968    -0.77300
C1109       C  0.93555765  0.97055981  0.93777984     0.83400
N1110       N  0.91646612  0.98714654  0.90853099    -0.79100
C1111       C  0.88847393  0.91933025  0.55208936     0.80900
N1112       N  0.91694223  0.94024556  0.53604506    -0.77400
C1113       C  0.92970811  0.93389435  0.49990633     0.83300
N1114       N  0.91326169  0.90584307  0.47856404    -0.77300
C1115       C  0.88491915  0.88392045  0.49507714     0.83400
N1116       N  0.87291649  0.89131640  0.53122694    -0.79100
O1117       O  0.00015042  0.99008436  0.93439434    -0.77800
C1118       C  0.54856143  0.56591028  0.86307384     0.83200
O1119       O  0.62039340  0.02135481  0.00135076    -0.78900
O1120       O  0.58974328  0.64000454  0.93627603    -0.80400
O1121       O  0.96643818  0.60823065  0.00168059    -0.80200
O1122       O  0.96251120  0.51457796  0.98018035    -0.78800
Zn1123     Zn  0.55068926  0.51938960  0.93671603     1.55700
O1124       O  0.49442078  0.64481795  0.95654486    -0.80200
Cd1125     Cd  0.49682269  0.55750165  0.00110603     1.59700
Cd1126     Cd  0.58791773  0.57068420  0.00339786     1.59600
O1127       O  0.51110234  0.54768992  0.05746031    -0.80200
O1128       O  0.54380638  0.56364375  0.96908736    -1.90700
Cd1129     Cd  0.53858960  0.61004180  0.93639563     1.59900
O1130       O  0.56908295  0.57295542  0.06046839    -0.80200
O1131       O  0.53291256  0.59405177  0.88000768    -0.78800
C1132       C  0.61806578  0.99012416  0.98312773     0.83700
C1133       C  0.96833652  0.99152340  0.95252761     0.83400
O1134       O  0.56125201  0.53730547  0.88198167    -0.77800
C1135       C  0.96962469  0.63972153  0.98325611     0.84200
O1136       O  0.59351108  0.98510002  0.95714114    -0.77900
C1137       C  0.53933459  0.55873739  0.07685099     0.84300
C1138       C  0.61949788  0.63918805  0.95650612     0.84600
O1139       O  0.62264935  0.61657960  0.98519195    -0.80300
O1140       O  0.57697315  0.94664504  0.50186509    -0.77800
C1141       C  0.55642762  0.53966901  0.57619802     0.83200
O1142       O  0.95854142  0.48049655  0.45741725    -0.78900
O1143       O  0.50846480  0.60984972  0.49294334    -0.80400
O1144       O  0.63120772  0.55054036  0.44794562    -0.80200
O1145       O  0.60969596  0.95661286  0.44788473    -0.78800
Zn1146     Zn  0.53900617  0.48719393  0.51049294     1.55700
O1147       O  0.60383190  0.60180869  0.47381249    -0.80200
Cd1148     Cd  0.58742192  0.51213716  0.43690570     1.59700
Cd1149     Cd  0.49304490  0.52918227  0.44382884     1.59600
O1150       O  0.56875747  0.51816343  0.38100209    -0.80200
O1151       O  0.54319659  0.52545895  0.47126139    -1.90700
Cd1152     Cd  0.55513654  0.57530054  0.49560420     1.59900
O1153       O  0.50637884  0.53082532  0.38522848    -0.80200
O1154       O  0.56369963  0.56807594  0.55411876    -0.78800
C1155       C  0.96130560  0.95860101  0.48655111     0.83700
C1156       C  0.60161037  0.93600274  0.47728711     0.83400
O1157       O  0.54562512  0.50777950  0.56307505    -0.77800
C1158       C  0.63308455  0.58431651  0.46134301     0.84200
O1159       O  0.98928032  0.96080192  0.50879858    -0.77900
C1160       C  0.53690666  0.52549700  0.36544510     0.84300
C1161       C  0.97425456  0.60743638  0.48194696     0.84600
O1162       O  0.96268136  0.57925854  0.46205835    -0.80300
C1163       C  0.63766764  0.91179340  0.04993078     0.80900
N1164       N  0.62268480  0.94255866  0.03217144    -0.77400
C1165       C  0.63800566  0.95702035  0.99938506     0.83300
N1166       N  0.66970545  0.94043249  0.98350548    -0.77300
C1167       C  0.68575803  0.90983555  0.00194146     0.83400
N1168       N  0.66923567  0.89567753  0.03448612    -0.79100
C1169       C  0.60568497  0.83772689  0.51418102     0.80900
N1170       N  0.59482688  0.87357476  0.50532737    -0.77400
C1171       C  0.61701718  0.89726467  0.48371009     0.83300
N1172       N  0.65192194  0.88497426  0.47125440    -0.77300
C1173       C  0.66306950  0.84839204  0.48011785     0.83400
N1174       N  0.63990182  0.82519443  0.50158732    -0.79100
C1175       C  0.70206746  0.66212906  0.89445311     0.80900
N1176       N  0.67077025  0.64523695  0.91021586    -0.77400
C1177       C  0.65321846  0.65990293  0.94167043     0.83300
N1178       N  0.66809950  0.69146616  0.95880280    -0.77300
C1179       C  0.69926787  0.70893556  0.94237855     0.83400
N1180       N  0.71559294  0.69410998  0.91065293    -0.79100
C1181       C  0.72562750  0.58822714  0.50595430     0.80900
N1182       N  0.69280748  0.57567423  0.49132856    -0.77400
C1183       C  0.67073968  0.59935482  0.47032359     0.83300
N1184       N  0.68136405  0.63680920  0.46449340    -0.77300
C1185       C  0.71514052  0.64908262  0.47883473     0.83400
N1186       N  0.73644271  0.62465694  0.49961054    -0.79100
O1187       O  0.76736877  0.82918659  0.88467199    -0.77800
C1188       C  0.71965533  0.74110873  0.95907214     0.83200
O1189       O  0.74961871  0.89057495  0.00717580    -0.78900
O1190       O  0.77776510  0.78420273  0.06165188    -0.80400
O1191       O  0.87445621  0.76466059  0.96046222    -0.80200
O1192       O  0.82455807  0.80217014  0.88332753    -0.78800
Zn1193     Zn  0.74990523  0.82224617  0.94040608     1.55700
O1194       O  0.83877946  0.73829566  0.00722135    -0.80200
Cd1195     Cd  0.83982231  0.80817252  0.94002200     1.59700
Cd1196     Cd  0.80030043  0.85954027  0.00677432     1.59600
O1197       O  0.87102858  0.85816686  0.94002854    -0.80200
O1198       O  0.79356154  0.81482949  0.97279305    -1.90700
Cd1199     Cd  0.78729594  0.76830659  0.00565986     1.59900
O1200       O  0.84540142  0.89397303  0.98628718    -0.80200
O1201       O  0.74305930  0.73438600  0.98574692    -0.78800
C1202       C  0.71950457  0.88926742  0.98742699     0.83700
C1203       C  0.79615163  0.81634724  0.86600413     0.83400
O1204       O  0.71913993  0.77300387  0.94105102    -0.77800
C1205       C  0.87002765  0.74107763  0.98824692     0.84200
O1206       O  0.71603375  0.86606877  0.95976099    -0.77900
C1207       C  0.86934476  0.88904942  0.95885918     0.84300
C1208       C  0.79201284  0.81165097  0.08031552     0.84600
O1209       O  0.80682387  0.84072826  0.06317227    -0.80300
O1210       O  0.70404709  0.80186599  0.45389379    -0.77800
C1211       C  0.79729352  0.78084038  0.36776647     0.83200
O1212       O  0.74873659  0.69881957  0.50520976    -0.78900
O1213       O  0.87186401  0.72595807  0.45689228    -0.80400
O1214       O  0.82534550  0.86451119  0.47544890    -0.80200
O1215       O  0.72978584  0.85015167  0.48566015    -0.78800
Zn1216     Zn  0.74710949  0.76553078  0.43951585     1.55700
O1217       O  0.87290341  0.82413172  0.46398684    -0.80200
Cd1218     Cd  0.78349485  0.82796404  0.49556320     1.59700
Cd1219     Cd  0.78987961  0.73853666  0.51263603     1.59200
O1220       O  0.78930896  0.82395985  0.55510546    -0.80200
O1221       O  0.79001799  0.77689838  0.47162524    -1.90700
Cd1222     Cd  0.84085521  0.77671949  0.44395619     1.59900
O1223       O  0.78562067  0.76133554  0.56657592    -0.80200
O1224       O  0.82855504  0.78238942  0.38588744    -0.78800
C1225       C  0.72948038  0.68866265  0.47669711     0.83700
C1226       C  0.70120109  0.83374642  0.47117002     0.83400
O1227       O  0.76543565  0.77462937  0.38498651    -0.77800
C1228       C  0.86069736  0.85692309  0.47445284     0.84200
O1229       O  0.72679120  0.70995167  0.44698240    -0.77900
C1230       C  0.78777645  0.79554265  0.57833671     0.84300
C1231       C  0.86768001  0.70487887  0.48683005     0.84600
O1232       O  0.83932812  0.70845481  0.50954700    -0.80300
C1233       C  0.82697793  0.80956932  0.76064797    -0.13700
C1234       C  0.79328841  0.81902542  0.74207061     0.16700
C1235       C  0.76080888  0.82859784  0.76424646     0.03000
C1236       C  0.76254000  0.82755707  0.80434988    -0.12200
C1237       C  0.79615603  0.81764857  0.82321794    -0.03200
C1238       C  0.82878588  0.80893771  0.80064909     0.02200
C1239       C  0.79154691  0.81495841  0.69981609     0.09100
N1240       N  0.72600993  0.83971016  0.74649800     0.65400
H1241       H  0.73730067  0.83473848  0.82084340     0.18300
N1242       N  0.86403714  0.79910938  0.81770664     0.75900
H1243       H  0.85192524  0.80182964  0.74393910     0.09900
C1244       C  0.81561218  0.83587554  0.67432428     0.03600
C1245       C  0.81414392  0.82892075  0.63482047    -0.05200
C1246       C  0.78866100  0.80211568  0.62013057    -0.23500
C1247       C  0.76514519  0.78104461  0.64576207     0.12800
C1248       C  0.76671053  0.78759998  0.68508401    -0.12700
N1249       N  0.84117582  0.86455058  0.68785876     0.64500
H1250       H  0.83311139  0.84398033  0.61574039     0.12300
N1251       N  0.73913789  0.75309024  0.63226523     0.61100
H1252       H  0.74870884  0.77101078  0.70424635     0.08500
O1253       O  0.88753390  0.82504996  0.82543764    -0.40300
O1254       O  0.87385294  0.76451333  0.82007456    -0.39500
O1255       O  0.69446511  0.82925249  0.76085765    -0.39500
O1256       O  0.72654218  0.86245024  0.71823698    -0.37200
O1257       O  0.74791066  0.71815151  0.63326147    -0.38100
O1258       O  0.70575513  0.76276414  0.62408126    -0.34300
O1259       O  0.87354840  0.86886556  0.67228171    -0.35700
O1260       O  0.83010767  0.88814609  0.71267861    -0.40000
C1261       C  0.82849021  0.79301289  0.26299936    -0.13700
C1262       C  0.79426470  0.80398343  0.24622039     0.16700
C1263       C  0.76120794  0.80716815  0.26938769     0.03000
C1264       C  0.76304118  0.79867385  0.30855800    -0.12200
C1265       C  0.79722981  0.78746634  0.32560533    -0.03200
C1266       C  0.83033594  0.78438025  0.30219761     0.02200
C1267       C  0.79278185  0.80791602  0.20395663     0.09100
N1268       N  0.72579936  0.81961678  0.25374714     0.65400
H1269       H  0.73754737  0.80187719  0.32600985     0.18300
N1270       N  0.86548194  0.77061487  0.31707253     0.75900
H1271       H  0.85365201  0.78946331  0.24510263     0.09900
C1272       C  0.81616540  0.83393846  0.18324840     0.03600
C1273       C  0.81546846  0.83442878  0.14312462    -0.05200
C1274       C  0.79181666  0.80954200  0.12292819    -0.23500
C1275       C  0.76850680  0.78342262  0.14407947     0.12800
C1276       C  0.76913309  0.78316408  0.18404498    -0.12700
N1277       N  0.84019314  0.86042267  0.20249549     0.64500
H1278       H  0.83349725  0.85465778  0.12766465     0.12300
N1279       N  0.74426955  0.75655779  0.12583477     0.61100
H1280       H  0.75164073  0.76261328  0.19975464     0.08500
O1281       O  0.89622806  0.78732555  0.30806983    -0.40300
O1282       O  0.86658668  0.73842447  0.33366625    -0.39500
O1283       O  0.69484538  0.80550587  0.26609830    -0.39500
O1284       O  0.72507345  0.84695362  0.22992547    -0.37200
O1285       O  0.75867156  0.72719238  0.11083996    -0.38100
O1286       O  0.70906176  0.75696424  0.13323297    -0.34300
O1287       O  0.87332576  0.86725553  0.18978095    -0.35700
O1288       O  0.82742218  0.87924952  0.23045163    -0.40000
C1289       C  0.58335157  0.57301905  0.67546556    -0.13700
C1290       C  0.55571365  0.55416331  0.69811557     0.16700
C1291       C  0.52959362  0.52950508  0.68083175     0.03000
C1292       C  0.53155656  0.52418630  0.64126834    -0.12200
C1293       C  0.55839854  0.54386363  0.61820899    -0.03200
C1294       C  0.58483125  0.56819203  0.63572257     0.02200
C1295       C  0.55566052  0.55872514  0.74005036     0.09100
N1296       N  0.00098648  0.50965759  0.70305363     0.65400
H1297       H  0.01089347  0.50563481  0.62828496     0.18300
N1298       N  0.61360167  0.58768623  0.61369070     0.75900
H1299       H  0.60389561  0.59148744  0.68874542     0.09900
C1300       C  0.57827627  0.53535287  0.76324692     0.03600
C1301       C  0.57632609  0.53907948  0.80301892    -0.05200
C1302       C  0.55197359  0.56585464  0.82051259    -0.23500
C1303       C  0.53054163  0.59056057  0.79675853     0.12800
C1304       C  0.53247441  0.58647941  0.75693541    -0.12700
N1305       N  0.60323783  0.00768952  0.74646363     0.64500
H1306       H  0.59376901  0.02062914  0.82001129     0.12300
N1307       N  0.50639097  0.61963282  0.81223407     0.61100
H1308       H  0.51556788  0.60497627  0.73899085     0.08500
O1309       O  0.64689441  0.07298202  0.61115463    -0.40300
O1310       O  0.60969547  0.62263320  0.60542377    -0.39500
O1311       O  0.97841714  0.52801565  0.72438207    -0.39500
O1312       O  0.99533277  0.47445910  0.69797781    -0.37200
O1313       O  0.52108433  0.64888576  0.82675755    -0.38100
O1314       O  0.47178602  0.62039863  0.80352850    -0.34300
O1315       O  0.63833995  0.00860285  0.75301349    -0.35700
O1316       O  0.58967779  0.98024832  0.72797038    -0.40000
C1317       C  0.56302951  0.51942387  0.25932094    -0.13700
C1318       C  0.53609890  0.54387245  0.24302717     0.16700
C1319       C  0.50791135  0.56033607  0.26694934     0.03000
C1320       C  0.50778006  0.55246386  0.30642760    -0.12200
C1321       C  0.53558888  0.52906263  0.32298450    -0.03200
C1322       C  0.56303446  0.51166760  0.29873774     0.02200
C1323       C  0.53675366  0.54979587  0.20072612     0.09100
N1324       N  0.98015860  0.58618749  0.25193701     0.65400
H1325       H  0.98673439  0.56622788  0.32452499     0.18300
N1326       N  0.59020714  0.48497245  0.31328037     0.75900
H1327       H  0.58378175  0.50547686  0.24101086     0.09900
C1328       C  0.56994365  0.56195293  0.18067701     0.03600
C1329       C  0.57008527  0.56413605  0.14055734    -0.05200
C1330       C  0.53770036  0.55492010  0.11951234    -0.23500
C1331       C  0.50448887  0.54280934  0.13991131     0.12800
C1332       C  0.50443253  0.54048380  0.17993134    -0.12700
N1333       N  0.60350642  0.57283017  0.20058786     0.64500
H1334       H  0.59575326  0.57369036  0.12580098     0.12300
N1335       N  0.47068521  0.03236999  0.12052412     0.61100
H1336       H  0.47907951  0.53033574  0.19490184     0.08500
O1337       O  0.62437704  0.48655240  0.30179720    -0.40300
O1338       O  0.57913736  0.45666432  0.33324794    -0.39500
O1339       O  0.94619765  0.58471321  0.26407505    -0.39500
O1340       O  0.99014944  0.61277477  0.22920548    -0.37200
O1341       O  0.46877569  0.00017818  0.10475127    -0.38100
O1342       O  0.94067165  0.05135198  0.12593034    -0.34300
O1343       O  0.63588144  0.56349461  0.18777598    -0.35700
O1344       O  0.60111890  0.59427479  0.22928337    -0.40000
C1345       C  0.84943921  0.49639075  0.61123948    -0.13700
C1346       C  0.81135254  0.48909595  0.60228239     0.16700
C1347       C  0.80059329  0.95074937  0.59623491     0.03000
C1348       C  0.82852676  0.92345606  0.58905085    -0.12200
C1349       C  0.86681323  0.93456639  0.58544172    -0.03200
C1350       C  0.87759419  0.46929019  0.60261924     0.02200
C1351       C  0.78945161  0.52059999  0.58444040     0.09100
N1352       N  0.76194472  0.94042392  0.58972905     0.65400
H1353       H  0.81932281  0.89631778  0.57841314     0.18300
N1354       N  0.91702147  0.47912450  0.60635900     0.75900
H1355       H  0.85777843  0.52501561  0.61879119     0.09900
C1356       C  0.74986572  0.52514745  0.59018444     0.03600
C1357       C  0.72928997  0.54574491  0.56278589    -0.05200
C1358       C  0.74774851  0.56408494  0.53178017    -0.23500
C1359       C  0.78753791  0.56264077  0.52831732     0.12800
C1360       C  0.80786163  0.54088419  0.55442439    -0.12700
N1361       N  0.73047375  0.50913728  0.62326224     0.64500
H1362       H  0.69888149  0.54842062  0.56605604     0.12300
N1363       N  0.80751944  0.58103283  0.49707413     0.61100
H1364       H  0.83809417  0.53750228  0.54926526     0.08500
O1365       O  0.94107207  0.45350907  0.61373972    -0.40300
O1366       O  0.92815165  0.01355220  0.60326316    -0.39500
O1367       O  0.74825433  0.94535449  0.55699276    -0.39500
O1368       O  0.74447492  0.41864574  0.61307605    -0.37200
O1369       O  0.83697175  0.60050546  0.50314950    -0.38100
O1370       O  0.79805715  0.57472328  0.46312407    -0.34300
O1371       O  0.74803577  0.50357325  0.65392430    -0.35700
O1372       O  0.69516660  0.50283163  0.62281929    -0.40000
C1373       C  0.84302239  0.55197079  0.83643046    -0.13700
C1374       C  0.80506961  0.55057700  0.84980098     0.16700
C1375       C  0.79285228  0.01762383  0.86986029     0.03000
C1376       C  0.81871225  0.98907129  0.87902783    -0.12200
C1377       C  0.85777600  0.99383160  0.87154399    -0.03200
C1378       C  0.86952223  0.52457246  0.84837173     0.02200
C1379       C  0.78036026  0.58488788  0.84675022     0.09100
N1380       N  0.75524774  0.01485719  0.88621124     0.65400
H1381       H  0.80850536  0.96553349  0.89681294     0.18300
N1382       N  0.90875236  0.52913156  0.83767922     0.75900
H1383       H  0.85270574  0.57594791  0.81895754     0.09900
C1384       C  0.79283803  0.62084538  0.85967883     0.03600
C1385       C  0.76611596  0.64905099  0.86799115    -0.05200
C1386       C  0.72697539  0.64104148  0.86723606    -0.23500
C1387       C  0.71474842  0.60765794  0.84859078     0.12800
C1388       C  0.74191311  0.58040235  0.83745452    -0.12700
N1389       N  0.83150044  0.62763494  0.86988970     0.64500
H1390       H  0.77630362  0.67510847  0.88076195     0.12300
N1391       N  0.67512521  0.59989928  0.84313160     0.61100
H1392       H  0.73251955  0.55381270  0.82513681     0.08500
O1393       O  0.92508082  0.56090809  0.84188903    -0.40300
O1394       O  0.92797044  0.00205262  0.82372152    -0.39500
O1395       O  0.73617128  0.98462591  0.88218702    -0.39500
O1396       O  0.74419424  0.54015791  0.91150605    -0.37200
O1397       O  0.65294844  0.62646191  0.83349199    -0.38100
O1398       O  0.66259812  0.56609492  0.84557809    -0.34300
O1399       O  0.84852252  0.65704597  0.85717081    -0.35700
O1400       O  0.84573696  0.60898697  0.89715113    -0.40000
C1401       C  0.51540063  0.70457594  0.60813769    -0.13700
C1402       C  0.50498373  0.74335761  0.60723474     0.16700
C1403       C  0.96586916  0.75229035  0.61130827     0.03000
C1404       C  0.93923949  0.72418556  0.60175220    -0.12200
C1405       C  0.95169442  0.68758703  0.59126566    -0.03200
C1406       C  0.48786629  0.67607924  0.60323480     0.02200
C1407       C  0.53156013  0.77139779  0.58831463     0.09100
N1408       N  0.95363769  0.79067882  0.61939812     0.65400
H1409       H  0.90998973  0.73232270  0.59730787     0.18300
N1410       N  0.49754845  0.63630707  0.60694172     0.75900
H1411       H  0.54498899  0.69643964  0.60816771     0.09900
C1412       C  0.57129690  0.77164229  0.59427578     0.03600
C1413       C  0.59525739  0.79208670  0.56858535    -0.05200
C1414       C  0.58035387  0.81348150  0.53819624    -0.23500
C1415       C  0.54074855  0.81440539  0.53324238     0.12800
C1416       C  0.51713230  0.79331792  0.55791849    -0.12700
N1417       N  0.58760116  0.75217173  0.62641357     0.64500
H1418       H  0.62558992  0.79256091  0.57321115     0.12300
N1419       N  0.52401030  0.83508475  0.50216267     0.61100
H1420       H  0.48719237  0.79235120  0.55150170     0.08500
O1421       O  0.53025087  0.62703857  0.61758307    -0.40300
O1422       O  0.47193472  0.61097692  0.60692998    -0.39500
O1423       O  0.92062807  0.80162739  0.61109469    -0.39500
O1424       O  0.47518538  0.81324360  0.63676324    -0.37200
O1425       O  0.53614075  0.83041426  0.46838604    -0.38100
O1426       O  0.49444553  0.85471185  0.50787689    -0.34300
O1427       O  0.62081721  0.73879748  0.62401250    -0.35700
O1428       O  0.56992497  0.75050285  0.65809655    -0.40000
C1429       C  0.99747972  0.80086954  0.10604430    -0.13700
C1430       C  0.53532428  0.80146333  0.09228091     0.16700
C1431       C  0.54761819  0.77216882  0.06735886     0.03000
C1432       C  0.52189860  0.74457574  0.05574624    -0.12200
C1433       C  0.98320165  0.74674060  0.06570162    -0.03200
C1434       C  0.97103606  0.77445847  0.09219956     0.02200
C1435       C  0.56052757  0.83478019  0.09956343     0.09100
N1436       N  0.58479502  0.77229302  0.04984165     0.65400
H1437       H  0.53178034  0.72379344  0.03512964     0.18300
N1438       N  0.93207968  0.77663102  0.10463300     0.75900
H1439       H  0.98797856  0.82216072  0.12627070     0.09900
C1440       C  0.54853477  0.87243487  0.09128819     0.03600
C1441       C  0.57568002  0.90051556  0.08265975    -0.05200
C1442       C  0.61436853  0.89096555  0.07935496    -0.23500
C1443       C  0.62653004  0.85600647  0.09558614     0.12800
C1444       C  0.59924525  0.82851917  0.10654726    -0.12700
N1445       N  0.50942392  0.88149937  0.08569328     0.64500
H1446       H  0.56567180  0.92804658  0.07263286     0.12300
N1447       N  0.66603464  0.84642048  0.09717095     0.61100
H1448       H  0.60862385  0.80049568  0.11582848     0.08500
O1449       O  0.91559071  0.80858125  0.10637357    -0.40300
O1450       O  0.91477556  0.74693514  0.11621143    -0.39500
O1451       O  0.60454259  0.74223217  0.05030131    -0.39500
O1452       O  0.59479446  0.79968001  0.02808981    -0.37200
O1453       O  0.68953085  0.86979190  0.11056837    -0.38100
O1454       O  0.67768418  0.81490644  0.08432094    -0.34300
O1455       O  0.49315265  0.90521703  0.10735419    -0.35700
O1456       O  0.49347826  0.87150355  0.05539753    -0.40000
loop_ 
_geom_bond_atom_site_label_1 
_geom_bond_atom_site_label_2 
_geom_bond_distance 
_geom_bond_site_symmetry_2 
_ccdc_geom_bond_type 
C1            N2   1.356       .  A
C1            N6   1.349       .  A
C1          C341   1.481       .  S
N2            C3   1.362       .  A
C3            N4   1.370   1_554  A
C3          C113   1.472   1_554  S
N4            C5   1.367       .  A
C5            N6   1.349   1_556  A
C5           C43   1.465       .  S
C7            N8   1.350       .  A
C7           N12   1.345       .  A
C7          C313   1.486       .  S
N8            C9   1.359       .  A
C9           N10   1.375       .  A
C9           C69   1.484       .  S
N10          C11   1.377       .  A
C11          N12   1.354       .  A
C11         C139   1.472       .  S
C13          N14   1.348       .  A
C13          N18   1.356       .  A
C13         C285   1.482       .  S
N14          C15   1.348       .  A
C15          N16   1.367       .  A
C15         C115   1.463       .  S
N16          C17   1.370       .  A
C17          N18   1.361       .  A
C17          C41   1.471       .  S
C19          N20   1.350       .  A
C19          N24   1.350       .  A
C19         C257   1.487       .  S
N20          C21   1.356       .  A
C21          N22   1.374       .  A
C21          C63   1.474       .  S
N22          C23   1.372       .  A
C23          N24   1.355       .  A
C23         C136   1.475       .  S
O25          C41   1.279       .  A
O25       Zn1123   2.059       .  S
C26         C210   1.493       .  S
C26          O42   1.280       .  A
C26          O39   1.276       .  A
O27          C40   1.275   1_554  A
O27        Cd398   2.073       .  S
O28          C46   1.276       .  A
O28         Cd37   2.082       .  S
O29          C43   1.274   1_554  A
O29        Cd761   2.075       .  S
O30         C405   1.275   1_545  A
O30        Cd761   2.075   1_556  S
Zn31         O42   2.038       .  S
Zn31       O1117   2.059   1_545  S
Zn31        O408   2.067   1_545  S
Zn31         O36   1.942       .  S
O32         C771   1.278       .  A
O32         Cd37   2.094   1_655  S
Cd33         O35   2.071   1_655  S
Cd33        O757   2.075       .  S
Cd33        O758   2.075   1_554  S
Cd33         O36   1.991   1_654  S
Cd34         O38   2.096       .  S
Cd34         O47   2.101   1_554  S
Cd34        O391   2.072       .  S
Cd34         O36   1.998   1_554  S
O35          C45   1.276       .  A
O36         Cd37   1.987       .  S
Cd37         O39   2.072       .  S
O38          C45   1.282       .  A
C40          C73   1.471       .  S
C40          O44   1.280       .  A
C41         O394   1.275       .  A
C43         O760   1.278       .  A
O44        Zn395   2.067       .  S
C45         C238   1.498       .  S
C46          C85   1.473       .  S
C46          O47   1.278       .  A
O48          C64   1.270       .  A
O48        Zn418   1.971       .  S
C49         C201   1.483       .  S
C49          O65   1.272       .  A
C49          O62   1.275       .  A
O50         C427   1.280       .  A
O50        Cd785   2.134   1_565  S
O51         C797   1.275   1_455  A
O51         Cd60   2.046       .  S
O52          C66   1.278       .  A
O52         Cd56   2.086       .  S
O53          C64   1.278       .  A
O53        Cd420   2.130       .  S
Zn54         O65   2.003   1_565  S
Zn54        O412   1.972       .  S
Zn54       O1159   1.986   1_455  S
Zn54         O59   1.911   1_565  S
O55          C66   1.272       .  A
O55         Cd60   2.076       .  S
Cd56         O58   2.085       .  S
Cd56        O417   2.129   1_545  S
Cd56         O59   2.008       .  S
Cd57         O61   2.097   1_655  S
Cd57        O778   2.134   1_545  S
Cd57        O798   2.151       .  S
Cd57         O59   2.030   1_655  S
O58          C68   1.281       .  A
O59         Cd60   1.997       .  S
Cd60         O62   2.089       .  S
O61          C68   1.283       .  A
C63          O67   1.270       .  A
C63         O414   1.280       .  A
C64          C79   1.478       .  S
C66          C91   1.466       .  S
O67       Zn1146   1.986       .  S
C68         C229   1.492       .  S
C69          O70   1.284       .  A
C69         O779   1.275       .  A
O70        Cd785   2.151       .  S
C71          N72   1.351       .  A
C71          N76   1.354       .  A
C71         C350   1.488       .  S
N72          C73   1.352   1_554  A
C73          N74   1.371       .  A
N74          C75   1.372   1_556  A
C75          N76   1.358       .  A
C75         C110   1.476   1_554  S
C77          N78   1.347       .  A
C77          N82   1.351       .  A
C77         C322   1.475       .  S
N78          C79   1.353       .  A
C79          N80   1.369       .  A
N80          C81   1.374       .  A
C81          N82   1.360       .  A
C81         C134   1.468       .  S
C83          N84   1.355       .  A
C83          N88   1.350       .  A
C83         C294   1.486       .  S
N84          C85   1.359       .  A
C85          N86   1.370       .  A
N86          C87   1.369       .  A
C87          N88   1.351       .  A
C87          C96   1.466       .  S
C89          N90   1.348       .  A
C89          N94   1.344       .  A
C89         C266   1.466       .  S
N90          C91   1.357       .  A
C91          N92   1.374       .  A
N92          C93   1.370       .  A
C93          N94   1.354       .  A
C93         C133   1.473       .  S
O95         C111   1.281       .  A
O95        Zn101   2.047       .  S
C96         O112   1.276       .  A
C96         O109   1.278       .  A
O97         C110   1.278   1_554  A
O97        Cd104   2.091       .  S
O98         C116   1.275       .  A
O98        Cd107   2.066       .  S
O99         C113   1.276       .  A
O99        Cd103   2.081       .  S
O100        C111   1.278       .  A
O100       Cd103   2.079       .  S
Zn101       O112   2.032       .  S
Zn101       O114   2.059       .  S
Zn101       O106   1.944       .  S
O102        C113   1.278   1_554  A
O102       Cd107   2.099       .  S
Cd103       O105   2.063       .  S
Cd103       O106   1.991       .  S
Cd104       O108   2.101   1_554  S
Cd104       O117   2.091       .  S
Cd104       O106   1.992   1_554  S
O105        C115   1.273       .  A
O106       Cd107   1.992   1_556  S
Cd107       O109   2.091   1_554  S
O108        C115   1.279       .  A
C110        O114   1.278       .  A
C111        C145   1.498       .  S
C116        C182   1.493       .  S
C116        O117   1.280       .  A
O118        C134   1.278       .  A
O118       Zn124   2.041       .  S
C119        C173   1.492       .  S
C119        O135   1.280       .  A
C119        O132   1.282       .  A
O120        C133   1.271       .  A
O120       Cd127   2.027       .  S
O121        C139   1.281       .  A
O121       Cd130   2.136       .  S
O122        C136   1.274       .  A
O122       Cd126   2.058       .  S
O123        C134   1.274       .  A
O123       Cd126   2.080       .  S
Zn124       O135   2.025       .  S
Zn124       O137   2.082       .  S
Zn124       O129   1.944       .  S
O125        C136   1.281       .  A
O125       Cd130   2.137       .  S
Cd126       O128   2.102       .  S
Cd126       O129   1.994       .  S
Cd127       O131   2.061       .  S
Cd127       O140   2.038       .  S
Cd127       O129   1.954       .  S
O128        C138   1.278       .  A
O129       Cd130   2.020       .  S
Cd130       O132   2.094       .  S
O131        C138   1.273       .  A
C133        O137   1.278       .  A
C138        C154   1.485       .  S
C139        O140   1.272       .  A
C141        C142   1.402       .  A
C141        C146   1.404       .  A
C141        H151   1.083       .  S
C142        C147   1.490       .  S
C142        C143   1.414       .  A
C143        C144   1.407       .  A
C143        N148   1.437       .  S
C144        C145   1.408       .  A
C144        H149   1.082       .  S
C145        C146   1.418       .  A
C146        N150   1.429       .  S
C147        C152   1.416       .  A
C147        C156   1.404       .  A
N148        O163   1.262       .  A
N148        O164   1.263       .  A
N150        O161   1.262       .  A
N150        O162   1.262       .  A
C152        C153   1.409       .  A
C152        N157   1.437       .  S
C153        C154   1.405       .  A
C153        H158   1.065       .  S
C154        C155   1.411       .  A
C155        C156   1.401       .  A
C155        N159   1.429       .  S
C156        H160   1.076       .  S
N157        O167   1.263       .  A
N157        O168   1.263       .  A
N159        O165   1.262       .  A
N159        O166   1.262       .  A
C169        C170   1.403       .  A
C169        C174   1.405       .  A
C169        H179   1.084       .  S
C170        C175   1.487       .  S
C170        C171   1.412       .  A
C171        C172   1.403       .  A
C171        N176   1.438       .  S
C172        C173   1.409       .  A
C172        H177   1.083       .  S
C173        C174   1.417       .  A
C174        N178   1.434       .  S
C175        C180   1.411       .  A
C175        C184   1.401       .  A
N176        O191   1.263       .  A
N176        O192   1.263       .  A
N178        O189   1.262       .  A
N178        O190   1.263       .  A
C180        C181   1.406       .  A
C180        N185   1.436       .  S
C181        C182   1.409       .  A
C181        H186   1.083       .  S
C182        C183   1.420       .  A
C183        C184   1.400       .  A
C183        N187   1.432       .  S
C184        H188   1.084       .  S
N185        O195   1.262       .  A
N185        O196   1.263       .  A
N187        O193   1.262       .  A
N187        O194   1.262       .  A
C197        C198   1.403       .  A
C197        C202   1.404       .  A
C197        H207   1.084       .  S
C198        C203   1.479       .  S
C198        C199   1.409       .  A
C199        C200   1.400       .  A
C199        N932   1.434       .  S
C200        C201   1.405       .  A
C200        H933   1.084       .  S
C201        C202   1.413       .  A
C202        N206   1.429       .  S
C203        C208   1.406       .  A
C203        C212   1.399       .  A
N204        C927   1.434       .  S
N204        O219   1.262       .  A
N204        O220   1.262   1_545  A
H205        C928   1.084       .  S
N206        O218   1.262       .  A
N206        O581   1.260       .  A
C208        C209   1.401       .  A
C208        N577   1.432       .  S
C209        C210   1.409       .  A
C209        H578   1.083       .  S
C210        C211   1.421       .  A
C211        C212   1.404       .  A
C211        N215   1.432       .  S
C212        H216   1.084       .  S
N213        C572   1.431       .  S
N213        O223   1.262       .  A
N213        O224   1.262       .  A
H214        C573   1.083       .  S
N215        O221   1.262       .  A
N215        O222   1.262   1_455  A
O217        N570   1.260       .  A
C225        C226   1.404       .  A
C225        C230   1.404       .  A
C225        H235   1.084       .  S
C226        C231   1.493       .  S
C226        C227   1.415       .  A
C227        C228   1.406       .  A
C227        N960   1.436   1_455  S
C228        C229   1.407       .  A
C228        H961   1.083   1_455  S
C229        C230   1.417       .  A
C230        N234   1.435   1_545  S
C231        C236   1.414       .  A
C231        C240   1.402       .  A
N232        C955   1.436       .  S
N232        O247   1.262       .  A
N232        O248   1.263       .  A
H233        C956   1.083       .  S
N234        O245   1.262       .  A
N234        O246   1.263       .  A
C236        C237   1.406       .  A
C236        N241   1.436       .  S
C237        C238   1.408       .  A
C237        H242   1.083       .  S
C238        C239   1.420       .  A
C239        C240   1.403       .  A
C239        N607   1.431   1_455  S
C240        H244   1.084   1_455  S
N241        O251   1.262       .  A
N241        O252   1.263       .  A
N243        C603   1.431   1_655  S
N243        O249   1.262       .  A
N243        O978   1.262       .  A
O250        N971   1.262       .  A
C253        C254   1.406       .  A
C253        C258   1.405       .  A
C253        H263   1.081   1_565  S
C254        C259   1.485   1_565  S
C254        C619   1.413       .  A
C255        C256   1.394       .  A
C255        C618   1.413       .  A
C255        N260   1.431       .  S
C256        C257   1.405       .  A
C256        H261   1.074       .  S
C257        C622   1.415       .  A
C258        C621   1.415       .  A
C258        N262   1.439       .  S
C259        C264   1.414       .  A
C259        C268   1.409       .  A
N260        O275   1.262       .  A
N260        O640   1.262       .  A
N262        O273   1.263       .  A
N262        O638   1.263   1_565  A
C264        C265   1.406       .  A
C264        N269   1.441       .  S
C265        C266   1.403       .  A
C265        H270   1.080       .  S
C266        C267   1.405       .  A
C267        C268   1.393       .  A
C267        N271   1.435       .  S
C268        H272   1.084       .  S
N269        O279   1.263       .  A
N269        O280   1.263       .  A
N271        O277   1.262       .  A
N271        O278   1.263       .  A
O274        N626   1.263       .  A
O276        N624   1.262       .  A
C281        C282   1.408       .  A
C281        C286   1.405       .  A
C281        H291   1.083       .  S
C282        C287   1.489       .  S
C282        C647   1.416       .  A
C283        C284   1.392       .  A
C283        C646   1.416       .  A
C283        N288   1.436       .  S
C284        C285   1.405       .  A
C284        H289   1.084       .  S
C285        C650   1.410       .  A
C286        C649   1.411   1_545  A
C286        N290   1.433       .  S
C287        C292   1.414       .  A
C287        C296   1.407       .  A
N288        O303   1.262       .  A
N288        O668   1.263       .  A
N290        O301   1.262       .  A
N290        O666   1.262       .  A
C292        C293   1.394       .  A
C292        N297   1.434       .  S
C293        C294   1.407       .  A
C293        H298   1.083       .  S
C294        C295   1.415       .  A
C295        C296   1.406       .  A
C295        N299   1.438       .  S
C296        H300   1.084       .  S
N297        O307   1.262       .  A
N297        O308   1.263       .  A
N299        O305   1.263       .  A
N299        O306   1.263       .  A
O302        N654   1.262       .  A
O304        N652   1.263       .  A
C309        C310   1.407       .  A
C309        C314   1.403   1_455  A
C309        H319   1.081       .  S
C310        C315   1.495       .  S
C310       C1039   1.418   1_455  A
C311        C312   1.405       .  A
C311       C1038   1.418       .  A
C311        N316   1.441       .  S
C312        C313   1.405       .  A
C312        H317   1.083       .  S
C313       C1042   1.407       .  A
C314       C1041   1.407       .  A
C314        N318   1.439       .  S
C315        C320   1.419       .  A
C315        C324   1.408       .  A
N316        O331   1.263       .  A
N316       O1060   1.263       .  A
N318        O329   1.259   1_655  A
N318        O330   1.263       .  A
C320        C321   1.410       .  A
C320        N325   1.439       .  S
C321        C322   1.405       .  A
C321        H326   1.084       .  S
C322        C323   1.409       .  A
C323        C324   1.392       .  A
C323        N327   1.437       .  S
C324        H328   1.083   1_455  S
N325        O335   1.263       .  A
N325        O336   1.263       .  A
N327        O333   1.263       .  A
N327        O334   1.263   1_455  A
O332       N1044   1.263       .  A
C337        C342   1.407       .  A
C337       C1066   1.409       .  A
C337        H347   1.083       .  S
C338        C343   1.491       .  S
C338        C339   1.417       .  A
C338       C1065   1.409   1_455  A
C339        C340   1.392       .  A
C339        N344   1.435       .  S
C340       C1069   1.403   1_455  A
C340        H345   1.084       .  S
C341        C342   1.412       .  A
C341       C1068   1.403       .  A
C342        N346   1.434       .  S
C343        C348   1.413       .  A
C343        C352   1.407       .  A
N344        O359   1.262       .  A
N344        O360   1.263       .  A
N346        O357   1.263       .  A
N346        O358   1.262       .  A
C348        C349   1.396       .  A
C348        N353   1.431       .  S
C349        C350   1.407       .  A
C349        H354   1.084       .  S
C350        C351   1.414       .  A
C351        C352   1.403       .  A
C351        N355   1.434       .  S
C352        H356   1.084       .  S
N353        O363   1.262   1_455  A
N353        O364   1.262   1_455  A
N355        O361   1.262       .  A
N355        O362   1.262       .  A
C365        N366   1.356       .  A
C365        N370   1.349       .  A
C365        C705   1.481       .  S
N366        C367   1.362       .  A
C367        N368   1.370   1_554  A
C367        C477   1.472   1_554  S
N368        C369   1.367       .  A
C369        N370   1.349   1_556  A
C369        C407   1.465       .  S
C371        N372   1.350       .  A
C371        N376   1.345       .  A
C371        C677   1.486       .  S
N372        C373   1.358       .  A
C373        N374   1.375       .  A
C373        C433   1.485       .  S
N374        C375   1.377       .  A
C375        N376   1.355       .  A
C375        C503   1.472       .  S
C377        N378   1.349       .  A
C377        N382   1.356       .  A
C377        C649   1.482       .  S
N378        C379   1.348       .  A
C379        N380   1.367       .  A
C379        C479   1.464       .  S
N380        C381   1.370       .  A
C381        N382   1.361       .  A
C381        C405   1.471       .  S
C383        N384   1.350       .  A
C383        N388   1.350       .  A
C383        C621   1.488       .  S
N384        C385   1.356       .  A
C385        N386   1.374       .  A
C385        C427   1.473       .  S
N386        C387   1.372       .  A
C387        N388   1.355       .  A
C387        C500   1.475       .  S
O389        C405   1.279       .  A
O389       Zn759   2.059   1_565  S
C390        C574   1.493       .  S
C390        O406   1.280       .  A
C390        O403   1.276       .  A
O391        C404   1.275   1_544  A
O392        C410   1.276       .  A
O392       Cd401   2.082       .  S
O393        C407   1.274   1_554  A
O393      Cd1125   2.075       .  S
O394      Cd1125   2.074   1_556  S
Zn395       O753   2.059       .  S
Zn395       O406   2.037       .  S
Zn395       O400   1.942       .  S
O396       C1135   1.278       .  A
O396       Cd401   2.094   1_655  S
Cd397      O1121   2.075       .  S
Cd397      O1122   2.074   1_554  S
Cd397       O399   2.071   1_655  S
Cd397       O400   1.991   1_654  S
Cd398       O402   2.096       .  S
Cd398       O411   2.102   1_554  S
Cd398       O400   1.998   1_554  S
O399        C409   1.276       .  A
O400       Cd401   1.987       .  S
Cd401       O403   2.072       .  S
O402        C409   1.282       .  A
C404        C437   1.471       .  S
C404        O408   1.280       .  A
C407       O1124   1.278       .  A
C409        C602   1.498       .  S
C410        C449   1.473       .  S
C410        O411   1.278       .  A
O412        C428   1.270       .  A
C413        C565   1.483       .  S
C413        O429   1.272       .  A
C413        O426   1.275       .  A
O414      Cd1149   2.134       .  S
O415       C1161   1.275   1_455  A
O415       Cd424   2.046       .  S
O416        C430   1.278       .  A
O416       Cd420   2.087       .  S
O417        C428   1.278       .  A
Zn418       O429   2.002       .  S
Zn418       O795   1.986   1_455  S
Zn418       O423   1.911       .  S
O419        C430   1.272       .  A
O419       Cd424   2.076       .  S
Cd420       O422   2.085       .  S
Cd420       O423   2.009       .  S
Cd421      O1142   2.134       .  S
Cd421       O425   2.097   1_655  S
Cd421      O1162   2.152       .  S
Cd421       O423   2.030   1_655  S
O422        C432   1.281       .  A
O423       Cd424   1.997       .  S
Cd424       O426   2.089       .  S
O425        C432   1.283       .  A
C427        O431   1.270       .  A
C428        C443   1.478       .  S
C430        C455   1.466       .  S
O431       Zn782   1.986       .  S
C432        C593   1.492       .  S
C433       O1143   1.275       .  A
C433        O434   1.284       .  A
O434      Cd1149   2.152       .  S
C435        N436   1.351       .  A
C435        N440   1.354       .  A
C435        C714   1.488       .  S
N436        C437   1.352   1_554  A
C437        N438   1.371       .  A
N438        C439   1.372   1_556  A
C439        N440   1.358       .  A
C439        C474   1.476   1_554  S
C441        N442   1.347       .  A
C441        N446   1.351       .  A
C441        C686   1.475       .  S
N442        C443   1.353       .  A
C443        N444   1.369       .  A
N444        C445   1.374       .  A
C445        N446   1.360       .  A
C445        C498   1.468       .  S
C447        N448   1.355       .  A
C447        N452   1.350       .  A
C447        C658   1.487       .  S
N448        C449   1.359       .  A
C449        N450   1.371       .  A
N450        C451   1.369       .  A
C451        N452   1.351       .  A
C451        C460   1.467       .  S
C453        N454   1.348       .  A
C453        N458   1.344       .  A
C453        C630   1.467       .  S
N454        C455   1.357       .  A
C455        N456   1.374       .  A
N456        C457   1.370       .  A
C457        N458   1.354       .  A
C457        C497   1.474       .  S
O459        C475   1.281       .  A
O459       Zn465   2.047       .  S
C460        O476   1.276       .  A
C460        O473   1.278       .  A
O461        C474   1.278   1_554  A
O461       Cd468   2.091       .  S
O462        C480   1.275       .  A
O462       Cd471   2.066       .  S
O463        C477   1.276       .  A
O463       Cd467   2.082       .  S
O464        C475   1.278       .  A
O464       Cd467   2.079       .  S
Zn465       O476   2.033       .  S
Zn465       O478   2.058       .  S
Zn465       O470   1.944       .  S
O466        C477   1.278   1_554  A
O466       Cd471   2.099       .  S
Cd467       O469   2.064       .  S
Cd467       O470   1.991       .  S
Cd468       O472   2.102   1_554  S
Cd468       O481   2.092       .  S
Cd468       O470   1.993   1_554  S
O469        C479   1.273       .  A
O470       Cd471   1.992   1_556  S
Cd471       O473   2.091   1_554  S
O472        C479   1.280       .  A
C474        O478   1.278       .  A
C475        C509   1.499       .  S
C480        C546   1.493       .  S
C480        O481   1.280       .  A
O482        C498   1.278       .  A
O482       Zn488   2.041       .  S
C483        C537   1.492       .  S
C483        O499   1.281       .  A
C483        O496   1.282       .  A
O484        C497   1.271       .  A
O484       Cd491   2.028       .  S
O485        C503   1.281       .  A
O485       Cd494   2.136       .  S
O486        C500   1.274       .  A
O486       Cd490   2.058       .  S
O487        C498   1.274       .  A
O487       Cd490   2.080       .  S
Zn488       O499   2.026       .  S
Zn488       O501   2.082       .  S
Zn488       O493   1.944       .  S
O489        C500   1.281       .  A
O489       Cd494   2.137       .  S
Cd490       O492   2.102       .  S
Cd490       O493   1.994       .  S
Cd491       O495   2.062       .  S
Cd491       O504   2.039       .  S
Cd491       O493   1.955       .  S
O492        C502   1.278       .  A
O493       Cd494   2.020       .  S
Cd494       O496   2.095       .  S
O495        C502   1.273       .  A
C497        O501   1.278       .  A
C502        C518   1.485       .  S
C503        O504   1.272       .  A
C505        C506   1.402       .  A
C505        C510   1.403       .  A
C505        H515   1.083       .  S
C506        C511   1.491       .  S
C506        C507   1.413       .  A
C507        C508   1.407       .  A
C507        N512   1.437       .  S
C508        C509   1.409       .  A
C508        H513   1.082       .  S
C509        C510   1.418       .  A
C510        N514   1.429       .  S
C511        C516   1.416       .  A
C511        C520   1.404       .  A
N512        O527   1.262       .  A
N512        O528   1.263       .  A
N514        O525   1.262       .  A
N514        O526   1.262       .  A
C516        C517   1.409       .  A
C516        N521   1.437       .  S
C517        C518   1.405       .  A
C517        H522   1.069       .  S
C518        C519   1.410       .  A
C519        C520   1.401       .  A
C519        N523   1.429       .  S
C520        H524   1.078       .  S
N521        O531   1.263       .  A
N521        O532   1.263       .  A
N523        O529   1.262       .  A
N523        O530   1.261       .  A
C533        C534   1.403       .  A
C533        C538   1.405       .  A
C533        H543   1.084       .  S
C534        C539   1.487       .  S
C534        C535   1.412       .  A
C535        C536   1.403       .  A
C535        N540   1.438       .  S
C536        C537   1.409       .  A
C536        H541   1.083       .  S
C537        C538   1.418       .  A
C538        N542   1.434       .  S
C539        C544   1.411       .  A
C539        C548   1.401       .  A
N540        O555   1.263       .  A
N540        O556   1.263       .  A
N542        O553   1.262       .  A
N542        O554   1.263       .  A
C544        C545   1.406       .  A
C544        N549   1.436       .  S
C545        C546   1.409       .  A
C545        H550   1.083       .  S
C546        C547   1.420       .  A
C547        C548   1.400       .  A
C547        N551   1.432       .  S
C548        H552   1.084       .  S
N549        O559   1.262       .  A
N549        O560   1.263       .  A
N551        O557   1.262       .  A
N551        O558   1.262       .  A
C561        C562   1.403       .  A
C561        C566   1.404       .  A
C561        H571   1.084       .  S
C562        C567   1.479       .  S
C562        C563   1.409       .  A
C563        C564   1.400       .  A
C563       N1296   1.434       .  S
C564        C565   1.405       .  A
C564       H1297   1.084       .  S
C565        C566   1.413       .  A
C566        N570   1.429       .  S
C567        C572   1.406       .  A
C567        C576   1.399       .  A
N568       C1291   1.434       .  S
N568        O583   1.262       .  A
N568        O584   1.262       .  A
H569       C1292   1.084       .  S
N570        O582   1.262       .  A
C572        C573   1.401       .  A
C573        C574   1.409       .  A
C574        C575   1.421       .  A
C575        C576   1.404       .  A
C575        N579   1.432       .  S
C576        H580   1.084       .  S
N577        O587   1.262       .  A
N577        O588   1.262   1_545  A
N579        O585   1.262       .  A
N579        O586   1.262   1_455  A
C589        C590   1.404       .  A
C589        C594   1.404       .  A
C589        H599   1.084       .  S
C590        C595   1.493       .  S
C590        C591   1.415       .  A
C591        C592   1.407       .  A
C591       N1324   1.436   1_455  S
C592        C593   1.407       .  A
C592       H1325   1.083   1_455  S
C593        C594   1.417       .  A
C594        N598   1.435       .  S
C595        C600   1.414       .  A
C595        C604   1.403       .  A
N596       C1319   1.436       .  S
N596        O611   1.262       .  A
N596        O612   1.263       .  A
H597       C1320   1.083       .  S
N598        O609   1.262       .  A
N598        O610   1.263       .  A
C600        C601   1.406       .  A
C600        N605   1.436       .  S
C601        C602   1.408       .  A
C601        H606   1.083       .  S
C602        C603   1.420       .  A
C603        C604   1.403       .  A
C604        H608   1.084   1_455  S
N605        O615   1.262       .  A
N605        O616   1.263       .  A
N607        O613   1.262       .  A
N607       O1342   1.262       .  A
O614       N1335   1.262       .  A
C617        C618   1.407       .  A
C617        C622   1.405       .  A
C617        H627   1.080       .  S
C618        C623   1.486       .  S
C619        C620   1.394       .  A
C619        N624   1.430       .  S
C620        C621   1.405       .  A
C620        H625   1.075       .  S
C622        N626   1.438       .  S
C623        C628   1.414       .  A
C623        C632   1.409       .  A
N624        O639   1.262       .  A
N626        O637   1.263       .  A
C628        C629   1.407       .  A
C628        N633   1.441       .  S
C629        C630   1.403       .  A
C629        H634   1.079       .  S
C630        C631   1.405       .  A
C631        C632   1.393       .  A
C631        N635   1.435       .  S
C632        H636   1.084       .  S
N633        O643   1.263       .  A
N633        O644   1.263       .  A
N635        O641   1.262       .  A
N635        O642   1.262       .  A
C645        C646   1.408       .  A
C645        C650   1.405       .  A
C645        H655   1.083       .  S
C646        C651   1.488       .  S
C647        C648   1.392   1_545  A
C647        N652   1.435       .  S
C648        C649   1.405       .  A
C648        H653   1.083       .  S
C650        N654   1.433       .  S
C651        C656   1.414       .  A
C651        C660   1.407       .  A
N652        O667   1.262   1_545  A
N654        O665   1.262       .  A
C656        C657   1.395       .  A
C656        N661   1.434       .  S
C657        C658   1.407       .  A
C657        H662   1.083       .  S
C658        C659   1.415       .  A
C659        C660   1.405       .  A
C659        N663   1.438       .  S
C660        H664   1.084       .  S
N661        O671   1.262       .  A
N661        O672   1.263       .  A
N663        O669   1.263       .  A
N663        O670   1.263       .  A
C673        C674   1.407       .  A
C673        C678   1.403   1_455  A
C673        H683   1.081       .  S
C674        C679   1.495       .  S
C674       C1403   1.418   1_455  A
C675       C1402   1.418       .  A
C675        C676   1.405       .  A
C675        N680   1.441       .  S
C676        C677   1.405       .  A
C676        H681   1.083       .  S
C677       C1406   1.407       .  A
C678       C1405   1.407       .  A
C678        N682   1.439       .  S
C679        C684   1.419       .  A
C679        C688   1.408       .  A
N680        O695   1.263       .  A
N680       O1424   1.263       .  A
N682        O693   1.259   1_655  A
N682        O694   1.263       .  A
C684        C685   1.410       .  A
C684        N689   1.439       .  S
C685        C686   1.405       .  A
C685        H690   1.084       .  S
C686        C687   1.409       .  A
C687        C688   1.392       .  A
C687        N691   1.437       .  S
C688        H692   1.083   1_455  S
N689        O699   1.263       .  A
N689        O700   1.263       .  A
N691        O697   1.263       .  A
N691        O698   1.263   1_455  A
O696       N1408   1.263       .  A
C701       C1430   1.409       .  A
C701        C706   1.407       .  A
C701        H711   1.083       .  S
C702        C707   1.491       .  S
C702       C1429   1.409   1_455  A
C702        C703   1.417       .  A
C703        C704   1.392       .  A
C703        N708   1.435       .  S
C704       C1433   1.403   1_455  A
C704        H709   1.084       .  S
C705       C1432   1.403       .  A
C705        C706   1.412       .  A
C706        N710   1.434       .  S
C707        C712   1.413       .  A
C707        C716   1.407       .  A
N708        O723   1.262       .  A
N708        O724   1.263       .  A
N710        O721   1.263       .  A
N710        O722   1.262       .  A
C712        C713   1.396       .  A
C712        N717   1.431       .  S
C713        C714   1.407       .  A
C713        H718   1.084       .  S
C714        C715   1.414       .  A
C715        C716   1.403       .  A
C715        N719   1.434       .  S
C716        H720   1.084       .  S
N717        O727   1.262   1_455  A
N717        O728   1.262   1_455  A
N719        O725   1.262       .  A
N719        O726   1.262       .  A
C729        N730   1.356       .  A
C729        N734   1.349       .  A
C729       C1069   1.481       .  S
N730        C731   1.362       .  A
C731        N732   1.370   1_554  A
C731        C841   1.472   1_554  S
N732        C733   1.367       .  A
C733        N734   1.349   1_556  A
C733        C771   1.465       .  S
C735        N736   1.350       .  A
C735        N740   1.345       .  A
C735       C1041   1.486       .  S
N736        C737   1.359       .  A
C737        N738   1.375       .  A
C737        C797   1.484       .  S
N738        C739   1.377       .  A
C739        N740   1.354       .  A
C739        C867   1.472       .  S
C741        N742   1.348       .  A
C741        N746   1.356       .  A
C741       C1013   1.482       .  S
N742        C743   1.348       .  A
C743        N744   1.367       .  A
C743        C843   1.463       .  S
N744        C745   1.370       .  A
C745        N746   1.361       .  A
C745        C769   1.471       .  S
C747        N748   1.350       .  A
C747        N752   1.350       .  A
C747        C985   1.487       .  S
N748        C749   1.356       .  A
C749        N750   1.374       .  A
C749        C791   1.474       .  S
N750        C751   1.372       .  A
C751        N752   1.355       .  A
C751        C864   1.475       .  S
O753        C769   1.279   1_455  A
C754        C938   1.493       .  S
C754        O770   1.280       .  A
C754        O767   1.276       .  A
O755        C768   1.275   1_554  A
O755      Cd1126   2.073       .  S
O756        C774   1.276       .  A
O756       Cd765   2.082       .  S
O757        C771   1.274   1_554  A
O758       C1133   1.275   1_545  A
Zn759       O770   2.038       .  S
Zn759      O1136   2.067   1_545  S
Zn759       O764   1.942       .  S
O760       Cd765   2.094       .  S
Cd761       O763   2.071       .  S
Cd761       O764   1.991   1_554  S
Cd762      O1119   2.072       .  S
Cd762       O766   2.096       .  S
Cd762       O775   2.101   1_554  S
Cd762       O764   1.998   1_554  S
O763        C773   1.276       .  A
O764       Cd765   1.987       .  S
Cd765       O767   2.072       .  S
O766        C773   1.282       .  A
C768        C801   1.471       .  S
C768        O772   1.280       .  A
C769       O1122   1.275       .  A
O772      Zn1123   2.067       .  S
C773        C966   1.498       .  S
C774        C813   1.473       .  S
C774        O775   1.278       .  A
O776        C792   1.270       .  A
O776      Zn1146   1.971       .  S
C777        C929   1.483       .  S
C777        O793   1.272       .  A
C777        O790   1.275       .  A
O778       C1155   1.280       .  A
O779       Cd788   2.046       .  S
O780        C794   1.278       .  A
O780       Cd784   2.086       .  S
O781        C792   1.278       .  A
O781      Cd1148   2.130       .  S
Zn782      O1140   1.972       .  S
Zn782       O793   2.003   1_565  S
Zn782       O787   1.911   1_565  S
O783        C794   1.272       .  A
O783       Cd788   2.076       .  S
Cd784      O1145   2.129   1_545  S
Cd784       O786   2.085       .  S
Cd784       O787   2.008       .  S
Cd785       O789   2.097       .  S
Cd785       O787   2.030       .  S
O786        C796   1.281       .  A
O787       Cd788   1.997       .  S
Cd788       O790   2.089       .  S
O789        C796   1.283       .  A
C791       O1142   1.280       .  A
C791        O795   1.270       .  A
C792        C807   1.478       .  S
C794        C819   1.466       .  S
C796        C957   1.492       .  S
C797        O798   1.284       .  A
C799        N800   1.351       .  A
C799        N804   1.354       .  A
C799       C1078   1.488       .  S
N800        C801   1.352   1_554  A
C801        N802   1.371       .  A
N802        C803   1.372   1_556  A
C803        N804   1.358       .  A
C803        C838   1.476   1_554  S
C805        N806   1.347       .  A
C805        N810   1.351       .  A
C805       C1050   1.475       .  S
N806        C807   1.353       .  A
C807        N808   1.369       .  A
N808        C809   1.374       .  A
C809        N810   1.360       .  A
C809        C862   1.468       .  S
C811        N812   1.355       .  A
C811        N816   1.350       .  A
C811       C1022   1.486       .  S
N812        C813   1.359       .  A
C813        N814   1.370       .  A
N814        C815   1.369       .  A
C815        N816   1.351       .  A
C815        C824   1.466       .  S
C817        N818   1.348       .  A
C817        N822   1.344       .  A
C817        C994   1.466       .  S
N818        C819   1.357       .  A
C819        N820   1.374       .  A
N820        C821   1.370       .  A
C821        N822   1.354       .  A
C821        C861   1.473       .  S
O823        C839   1.281       .  A
O823       Zn829   2.047       .  S
C824        O840   1.276       .  A
C824        O837   1.278       .  A
O825        C838   1.278   1_554  A
O825       Cd832   2.091       .  S
O826        C844   1.275       .  A
O826       Cd835   2.066       .  S
O827        C841   1.276       .  A
O827       Cd831   2.081       .  S
O828        C839   1.278       .  A
O828       Cd831   2.079       .  S
Zn829       O840   2.032       .  S
Zn829       O842   2.059       .  S
Zn829       O834   1.944       .  S
O830        C841   1.278   1_554  A
O830       Cd835   2.099       .  S
Cd831       O833   2.063       .  S
Cd831       O834   1.991       .  S
Cd832       O836   2.101   1_554  S
Cd832       O845   2.091       .  S
Cd832       O834   1.992   1_554  S
O833        C843   1.273       .  A
O834       Cd835   1.992   1_556  S
Cd835       O837   2.091   1_554  S
O836        C843   1.279       .  A
C838        O842   1.278       .  A
C839        C873   1.498       .  S
C844        C910   1.493       .  S
C844        O845   1.280       .  A
O846        C862   1.278       .  A
O846       Zn852   2.041       .  S
C847        C901   1.492       .  S
C847        O863   1.280       .  A
C847        O860   1.282       .  A
O848        C861   1.271       .  A
O848       Cd855   2.027       .  S
O849        C867   1.281       .  A
O849       Cd858   2.136       .  S
O850        C864   1.274       .  A
O850       Cd854   2.058       .  S
O851        C862   1.274       .  A
O851       Cd854   2.080       .  S
Zn852       O863   2.025       .  S
Zn852       O865   2.082       .  S
Zn852       O857   1.944       .  S
O853        C864   1.281       .  A
O853       Cd858   2.137       .  S
Cd854       O856   2.102       .  S
Cd854       O857   1.994       .  S
Cd855       O859   2.061       .  S
Cd855       O868   2.038       .  S
Cd855       O857   1.954       .  S
O856        C866   1.278       .  A
O857       Cd858   2.020       .  S
Cd858       O860   2.094       .  S
O859        C866   1.273       .  A
C861        O865   1.278       .  A
C866        C882   1.485       .  S
C867        O868   1.272       .  A
C869        C870   1.402       .  A
C869        C874   1.404       .  A
C869        H879   1.083       .  S
C870        C875   1.490       .  S
C870        C871   1.414       .  A
C871        C872   1.407       .  A
C871        N876   1.437       .  S
C872        C873   1.408       .  A
C872        H877   1.082       .  S
C873        C874   1.418       .  A
C874        N878   1.429       .  S
C875        C880   1.416       .  A
C875        C884   1.404       .  A
N876        O891   1.262       .  A
N876        O892   1.263       .  A
N878        O889   1.262       .  A
N878        O890   1.262       .  A
C880        C881   1.409       .  A
C880        N885   1.437       .  S
C881        C882   1.405       .  A
C881        H886   1.065       .  S
C882        C883   1.411       .  A
C883        C884   1.401       .  A
C883        N887   1.429       .  S
C884        H888   1.076       .  S
N885        O895   1.263       .  A
N885        O896   1.263       .  A
N887        O893   1.262       .  A
N887        O894   1.262       .  A
C897        C898   1.403       .  A
C897        C902   1.405       .  A
C897        H907   1.084       .  S
C898        C903   1.487       .  S
C898        C899   1.412       .  A
C899        C900   1.403       .  A
C899        N904   1.438       .  S
C900        C901   1.409       .  A
C900        H905   1.083       .  S
C901        C902   1.417       .  A
C902        N906   1.434       .  S
C903        C908   1.411       .  A
C903        C912   1.401       .  A
N904        O919   1.263       .  A
N904        O920   1.263       .  A
N906        O917   1.262       .  A
N906        O918   1.263       .  A
C908        C909   1.406       .  A
C908        N913   1.436       .  S
C909        C910   1.409       .  A
C909        H914   1.083       .  S
C910        C911   1.420       .  A
C911        C912   1.400       .  A
C911        N915   1.432       .  S
C912        H916   1.084       .  S
N913        O923   1.262       .  A
N913        O924   1.263       .  A
N915        O921   1.262       .  A
N915        O922   1.262       .  A
C925        C926   1.403       .  A
C925        C930   1.404       .  A
C925        H935   1.084       .  S
C926        C931   1.479       .  S
C926        C927   1.409       .  A
C927        C928   1.400       .  A
C928        C929   1.405       .  A
C929        C930   1.413       .  A
C930        N934   1.429       .  S
C931        C936   1.406       .  A
C931        C940   1.399       .  A
N932        O947   1.262   1_455  A
N932        O948   1.262   1_445  A
N934       O1309   1.260       .  A
N934        O946   1.262       .  A
C936        C937   1.401       .  A
C936       N1305   1.432       .  S
C937        C938   1.409       .  A
C937       H1306   1.083       .  S
C938        C939   1.421       .  A
C939        C940   1.404       .  A
C939        N943   1.432       .  S
C940        H944   1.084       .  S
N941       C1300   1.431       .  S
N941        O951   1.262       .  A
N941        O952   1.262       .  A
H942       C1301   1.083       .  S
N943        O949   1.262       .  A
N943        O950   1.262       .  A
O945       N1298   1.260       .  A
C953        C954   1.404       .  A
C953        C958   1.404       .  A
C953        H963   1.084       .  S
C954        C959   1.493       .  S
C954        C955   1.415       .  A
C955        C956   1.406       .  A
C956        C957   1.407       .  A
C957        C958   1.417       .  A
C958        N962   1.435   1_545  S
C959        C964   1.414       .  A
C959        C968   1.402       .  A
N960        O975   1.262       .  A
N960        O976   1.263       .  A
N962        O973   1.262       .  A
N962        O974   1.263       .  A
C964        C965   1.406       .  A
C964        N969   1.436       .  S
C965        C966   1.408       .  A
C965        H970   1.083       .  S
C966        C967   1.420       .  A
C967        C968   1.403       .  A
C967       N1335   1.431       .  S
C968        H972   1.084       .  S
N969        O979   1.262       .  A
N969        O980   1.263       .  A
N971       C1331   1.431       .  S
N971        O977   1.262       .  A
C981        C982   1.406       .  A
C981        C986   1.405       .  A
C981        H991   1.081   1_565  S
C982        C987   1.485   1_565  S
C982       C1347   1.413       .  A
C983       C1346   1.413       .  A
C983        C984   1.394       .  A
C983        N988   1.431       .  S
C984        C985   1.405       .  A
C984        H989   1.074       .  S
C985       C1350   1.415       .  A
C986       C1349   1.415       .  A
C986        N990   1.439       .  S
C987        C992   1.414       .  A
C987        C996   1.409       .  A
N988       O1003   1.262       .  A
N988       O1368   1.262       .  A
N990       O1001   1.263       .  A
N990       O1366   1.263   1_565  A
C992        C993   1.406       .  A
C992        N997   1.441       .  S
C993        C994   1.403       .  A
C993        H998   1.080       .  S
C994        C995   1.405       .  A
C995        C996   1.393       .  A
C995        N999   1.435       .  S
C996       H1000   1.084       .  S
N997       O1007   1.263       .  A
N997       O1008   1.263       .  A
N999       O1005   1.262       .  A
N999       O1006   1.263       .  A
O1002      N1354   1.263       .  A
O1004      N1352   1.262       .  A
C1009      C1010   1.408       .  A
C1009      C1014   1.405       .  A
C1009      H1019   1.083       .  S
C1010      C1015   1.489       .  S
C1010      C1375   1.416       .  A
C1011      C1374   1.416       .  A
C1011      C1012   1.392       .  A
C1011      N1016   1.436       .  S
C1012      C1013   1.405       .  A
C1012      H1017   1.084       .  S
C1013      C1378   1.410       .  A
C1014      C1377   1.411   1_545  A
C1014      N1018   1.433       .  S
C1015      C1020   1.414       .  A
C1015      C1024   1.407       .  A
N1016      O1031   1.262       .  A
N1016      O1396   1.263       .  A
N1018      O1029   1.262       .  A
N1018      O1394   1.262       .  A
C1020      C1021   1.394       .  A
C1020      N1025   1.434       .  S
C1021      C1022   1.407       .  A
C1021      H1026   1.083       .  S
C1022      C1023   1.415       .  A
C1023      C1024   1.406       .  A
C1023      N1027   1.438       .  S
C1024      H1028   1.084       .  S
N1025      O1035   1.262       .  A
N1025      O1036   1.263       .  A
N1027      O1033   1.263       .  A
N1027      O1034   1.263       .  A
O1030      N1382   1.262       .  A
O1032      N1380   1.263       .  A
C1037      C1038   1.407       .  A
C1037      C1042   1.403       .  A
C1037      H1047   1.081       .  S
C1038      C1043   1.495       .  S
C1039      C1040   1.405       .  A
C1039      N1044   1.441       .  S
C1040      C1041   1.405       .  A
C1040      H1045   1.083       .  S
C1042      N1046   1.439       .  S
C1043      C1048   1.419       .  A
C1043      C1052   1.408       .  A
N1044      O1059   1.263       .  A
N1046      O1057   1.259       .  A
N1046      O1058   1.263       .  A
C1048      C1049   1.410       .  A
C1048      N1053   1.439       .  S
C1049      C1050   1.405       .  A
C1049      H1054   1.084       .  S
C1050      C1051   1.409       .  A
C1051      C1052   1.392       .  A
C1051      N1055   1.437       .  S
C1052      H1056   1.083       .  S
N1053      O1063   1.263       .  A
N1053      O1064   1.263       .  A
N1055      O1061   1.263       .  A
N1055      O1062   1.263       .  A
C1065      C1070   1.407       .  A
C1065      H1075   1.083       .  S
C1066      C1071   1.491       .  S
C1066      C1067   1.417       .  A
C1067      C1068   1.392       .  A
C1067      N1072   1.435       .  S
C1068      H1073   1.084       .  S
C1069      C1070   1.412       .  A
C1070      N1074   1.434       .  S
C1071      C1076   1.413       .  A
C1071      C1080   1.407       .  A
N1072      O1087   1.262       .  A
N1072      O1088   1.263       .  A
N1074      O1085   1.263       .  A
N1074      O1086   1.262       .  A
C1076      C1077   1.396       .  A
C1076      N1081   1.431       .  S
C1077      C1078   1.407       .  A
C1077      H1082   1.084       .  S
C1078      C1079   1.414       .  A
C1079      C1080   1.403       .  A
C1079      N1083   1.434       .  S
C1080      H1084   1.084       .  S
N1081      O1091   1.262       .  A
N1081      O1092   1.262       .  A
N1083      O1089   1.262       .  A
N1083      O1090   1.262       .  A
C1093      N1094   1.356       .  A
C1093      N1098   1.349       .  A
C1093      C1433   1.481       .  S
N1094      C1095   1.362       .  A
C1095      N1096   1.370   1_554  A
C1095      C1205   1.472   1_554  S
N1096      C1097   1.367       .  A
C1097      N1098   1.349   1_556  A
C1097      C1135   1.465       .  S
C1099      N1100   1.350       .  A
C1099      N1104   1.345       .  A
C1099      C1405   1.486       .  S
N1100      C1101   1.358       .  A
C1101      N1102   1.375       .  A
C1101      C1161   1.485       .  S
N1102      C1103   1.377       .  A
C1103      N1104   1.355       .  A
C1103      C1231   1.472       .  S
C1105      N1106   1.349       .  A
C1105      N1110   1.356       .  A
C1105      C1377   1.482       .  S
N1106      C1107   1.348       .  A
C1107      N1108   1.367       .  A
C1107      C1207   1.464       .  S
N1108      C1109   1.370       .  A
C1109      N1110   1.361       .  A
C1109      C1133   1.471       .  S
C1111      N1112   1.350       .  A
C1111      N1116   1.350       .  A
C1111      C1349   1.488       .  S
N1112      C1113   1.356       .  A
C1113      N1114   1.374       .  A
C1113      C1155   1.473       .  S
N1114      C1115   1.372       .  A
C1115      N1116   1.355       .  A
C1115      C1228   1.475       .  S
O1117      C1133   1.279   1_455  A
C1118      C1302   1.493       .  S
C1118      O1134   1.280       .  A
C1118      O1131   1.276       .  A
O1119      C1132   1.275   1_544  A
O1120      C1138   1.276       .  A
O1120     Cd1129   2.082       .  S
O1121      C1135   1.274   1_554  A
Zn1123     O1134   2.037       .  S
Zn1123     O1128   1.942       .  S
O1124     Cd1129   2.094       .  S
Cd1125     O1127   2.071       .  S
Cd1125     O1128   1.991   1_554  S
Cd1126     O1130   2.096       .  S
Cd1126     O1139   2.102   1_554  S
Cd1126     O1128   1.998   1_554  S
O1127      C1137   1.276       .  A
O1128     Cd1129   1.987       .  S
Cd1129     O1131   2.072       .  S
O1130      C1137   1.282       .  A
C1132      C1165   1.471       .  S
C1132      O1136   1.280       .  A
C1137      C1330   1.498       .  S
C1138      C1177   1.473       .  S
C1138      O1139   1.278       .  A
O1140      C1156   1.270       .  A
C1141      C1293   1.483       .  S
C1141      O1157   1.272       .  A
C1141      O1154   1.275       .  A
O1143     Cd1152   2.046       .  S
O1144      C1158   1.278       .  A
O1144     Cd1148   2.087       .  S
O1145      C1156   1.278       .  A
Zn1146     O1157   2.002       .  S
Zn1146     O1151   1.911       .  S
O1147      C1158   1.272       .  A
O1147     Cd1152   2.076       .  S
Cd1148     O1150   2.085       .  S
Cd1148     O1151   2.009       .  S
Cd1149     O1153   2.097       .  S
Cd1149     O1151   2.030       .  S
O1150      C1160   1.281       .  A
O1151     Cd1152   1.997       .  S
Cd1152     O1154   2.089       .  S
O1153      C1160   1.283       .  A
C1155      O1159   1.270       .  A
C1156      C1171   1.478       .  S
C1158      C1183   1.466       .  S
C1160      C1321   1.492       .  S
C1161      O1162   1.284       .  A
C1163      N1164   1.351       .  A
C1163      N1168   1.354       .  A
C1163      C1442   1.488       .  S
N1164      C1165   1.352   1_554  A
C1165      N1166   1.371       .  A
N1166      C1167   1.372   1_556  A
C1167      N1168   1.358       .  A
C1167      C1202   1.476   1_554  S
C1169      N1170   1.347       .  A
C1169      N1174   1.351       .  A
C1169      C1414   1.475       .  S
N1170      C1171   1.353       .  A
C1171      N1172   1.369       .  A
N1172      C1173   1.374       .  A
C1173      N1174   1.360       .  A
C1173      C1226   1.468       .  S
C1175      N1176   1.355       .  A
C1175      N1180   1.350       .  A
C1175      C1386   1.487       .  S
N1176      C1177   1.359       .  A
C1177      N1178   1.371       .  A
N1178      C1179   1.369       .  A
C1179      N1180   1.351       .  A
C1179      C1188   1.467       .  S
C1181      N1182   1.348       .  A
C1181      N1186   1.344       .  A
C1181      C1358   1.467       .  S
N1182      C1183   1.357       .  A
C1183      N1184   1.374       .  A
N1184      C1185   1.370       .  A
C1185      N1186   1.354       .  A
C1185      C1225   1.474       .  S
O1187      C1203   1.281       .  A
O1187     Zn1193   2.047       .  S
C1188      O1204   1.276       .  A
C1188      O1201   1.278       .  A
O1189      C1202   1.278   1_554  A
O1189     Cd1196   2.091       .  S
O1190      C1208   1.275       .  A
O1190     Cd1199   2.066       .  S
O1191      C1205   1.276       .  A
O1191     Cd1195   2.082       .  S
O1192      C1203   1.278       .  A
O1192     Cd1195   2.079       .  S
Zn1193     O1204   2.033       .  S
Zn1193     O1206   2.058       .  S
Zn1193     O1198   1.944       .  S
O1194      C1205   1.278   1_554  A
O1194     Cd1199   2.099       .  S
Cd1195     O1197   2.064       .  S
Cd1195     O1198   1.991       .  S
Cd1196     O1200   2.102   1_554  S
Cd1196     O1209   2.092       .  S
Cd1196     O1198   1.993   1_554  S
O1197      C1207   1.273       .  A
O1198     Cd1199   1.992   1_556  S
Cd1199     O1201   2.091   1_554  S
O1200      C1207   1.280       .  A
C1202      O1206   1.278       .  A
C1203      C1237   1.499       .  S
C1208      C1274   1.493       .  S
C1208      O1209   1.280       .  A
O1210      C1226   1.278       .  A
O1210     Zn1216   2.041       .  S
C1211      C1265   1.492       .  S
C1211      O1227   1.281       .  A
C1211      O1224   1.282       .  A
O1212      C1225   1.271       .  A
O1212     Cd1219   2.028       .  S
O1213      C1231   1.281       .  A
O1213     Cd1222   2.136       .  S
O1214      C1228   1.274       .  A
O1214     Cd1218   2.058       .  S
O1215      C1226   1.274       .  A
O1215     Cd1218   2.080       .  S
Zn1216     O1227   2.026       .  S
Zn1216     O1229   2.082       .  S
Zn1216     O1221   1.944       .  S
O1217      C1228   1.281       .  A
O1217     Cd1222   2.137       .  S
Cd1218     O1220   2.102       .  S
Cd1218     O1221   1.994       .  S
Cd1219     O1223   2.062       .  S
Cd1219     O1232   2.039       .  S
Cd1219     O1221   1.955       .  S
O1220      C1230   1.278       .  A
O1221     Cd1222   2.020       .  S
Cd1222     O1224   2.095       .  S
O1223      C1230   1.273       .  A
C1225      O1229   1.278       .  A
C1230      C1246   1.485       .  S
C1231      O1232   1.272       .  A
C1233      C1234   1.402       .  A
C1233      C1238   1.403       .  A
C1233      H1243   1.083       .  S
C1234      C1239   1.491       .  S
C1234      C1235   1.413       .  A
C1235      C1236   1.407       .  A
C1235      N1240   1.437       .  S
C1236      C1237   1.409       .  A
C1236      H1241   1.082       .  S
C1237      C1238   1.418       .  A
C1238      N1242   1.429       .  S
C1239      C1244   1.416       .  A
C1239      C1248   1.404       .  A
N1240      O1255   1.262       .  A
N1240      O1256   1.263       .  A
N1242      O1253   1.262       .  A
N1242      O1254   1.262       .  A
C1244      C1245   1.409       .  A
C1244      N1249   1.437       .  S
C1245      C1246   1.405       .  A
C1245      H1250   1.069       .  S
C1246      C1247   1.410       .  A
C1247      C1248   1.401       .  A
C1247      N1251   1.429       .  S
C1248      H1252   1.078       .  S
N1249      O1259   1.263       .  A
N1249      O1260   1.263       .  A
N1251      O1257   1.262       .  A
N1251      O1258   1.261       .  A
C1261      C1262   1.403       .  A
C1261      C1266   1.405       .  A
C1261      H1271   1.084       .  S
C1262      C1267   1.487       .  S
C1262      C1263   1.412       .  A
C1263      C1264   1.403       .  A
C1263      N1268   1.438       .  S
C1264      C1265   1.409       .  A
C1264      H1269   1.083       .  S
C1265      C1266   1.418       .  A
C1266      N1270   1.434       .  S
C1267      C1272   1.411       .  A
C1267      C1276   1.401       .  A
N1268      O1283   1.263       .  A
N1268      O1284   1.263       .  A
N1270      O1281   1.262       .  A
N1270      O1282   1.263       .  A
C1272      C1273   1.406       .  A
C1272      N1277   1.436       .  S
C1273      C1274   1.409       .  A
C1273      H1278   1.083       .  S
C1274      C1275   1.420       .  A
C1275      C1276   1.400       .  A
C1275      N1279   1.432       .  S
C1276      H1280   1.084       .  S
N1277      O1287   1.262       .  A
N1277      O1288   1.263       .  A
N1279      O1285   1.262       .  A
N1279      O1286   1.262       .  A
C1289      C1290   1.403       .  A
C1289      C1294   1.404       .  A
C1289      H1299   1.084       .  S
C1290      C1295   1.479       .  S
C1290      C1291   1.409       .  A
C1291      C1292   1.400       .  A
C1292      C1293   1.405       .  A
C1293      C1294   1.413       .  A
C1294      N1298   1.429       .  S
C1295      C1300   1.406       .  A
C1295      C1304   1.399       .  A
N1296      O1311   1.262   1_455  A
N1296      O1312   1.262   1_455  A
N1298      O1310   1.262       .  A
C1300      C1301   1.401       .  A
C1301      C1302   1.409       .  A
C1302      C1303   1.421       .  A
C1303      C1304   1.404       .  A
C1303      N1307   1.432       .  S
C1304      H1308   1.084       .  S
N1305      O1315   1.262       .  A
N1305      O1316   1.262   1_545  A
N1307      O1313   1.262       .  A
N1307      O1314   1.262       .  A
C1317      C1318   1.404       .  A
C1317      C1322   1.404       .  A
C1317      H1327   1.084       .  S
C1318      C1323   1.493       .  S
C1318      C1319   1.415       .  A
C1319      C1320   1.407       .  A
C1320      C1321   1.407       .  A
C1321      C1322   1.417       .  A
C1322      N1326   1.435       .  S
C1323      C1328   1.414       .  A
C1323      C1332   1.403       .  A
N1324      O1339   1.262       .  A
N1324      O1340   1.263       .  A
N1326      O1337   1.262       .  A
N1326      O1338   1.263       .  A
C1328      C1329   1.406       .  A
C1328      N1333   1.436       .  S
C1329      C1330   1.408       .  A
C1329      H1334   1.083       .  S
C1330      C1331   1.420       .  A
C1331      C1332   1.403       .  A
C1332      H1336   1.084       .  S
N1333      O1343   1.262       .  A
N1333      O1344   1.263       .  A
N1335      O1341   1.262       .  A
C1345      C1346   1.407       .  A
C1345      C1350   1.405       .  A
C1345      H1355   1.080       .  S
C1346      C1351   1.486       .  S
C1347      C1348   1.394       .  A
C1347      N1352   1.430       .  S
C1348      C1349   1.405       .  A
C1348      H1353   1.075       .  S
C1350      N1354   1.438       .  S
C1351      C1356   1.414       .  A
C1351      C1360   1.409       .  A
N1352      O1367   1.262       .  A
N1354      O1365   1.263       .  A
C1356      C1357   1.407       .  A
C1356      N1361   1.441       .  S
C1357      C1358   1.403       .  A
C1357      H1362   1.079       .  S
C1358      C1359   1.405       .  A
C1359      C1360   1.393       .  A
C1359      N1363   1.435       .  S
C1360      H1364   1.084       .  S
N1361      O1371   1.263       .  A
N1361      O1372   1.263       .  A
N1363      O1369   1.262       .  A
N1363      O1370   1.262       .  A
C1373      C1374   1.408       .  A
C1373      C1378   1.405       .  A
C1373      H1383   1.083       .  S
C1374      C1379   1.488       .  S
C1375      C1376   1.392   1_545  A
C1375      N1380   1.435       .  S
C1376      C1377   1.405       .  A
C1376      H1381   1.083       .  S
C1378      N1382   1.433       .  S
C1379      C1384   1.414       .  A
C1379      C1388   1.407       .  A
N1380      O1395   1.262   1_545  A
N1382      O1393   1.262       .  A
C1384      C1385   1.395       .  A
C1384      N1389   1.434       .  S
C1385      C1386   1.407       .  A
C1385      H1390   1.083       .  S
C1386      C1387   1.415       .  A
C1387      C1388   1.405       .  A
C1387      N1391   1.438       .  S
C1388      H1392   1.084       .  S
N1389      O1399   1.262       .  A
N1389      O1400   1.263       .  A
N1391      O1397   1.263       .  A
N1391      O1398   1.263       .  A
C1401      C1402   1.407       .  A
C1401      C1406   1.403       .  A
C1401      H1411   1.081       .  S
C1402      C1407   1.495       .  S
C1403      C1404   1.405       .  A
C1403      N1408   1.441       .  S
C1404      C1405   1.405       .  A
C1404      H1409   1.083       .  S
C1406      N1410   1.439       .  S
C1407      C1412   1.419       .  A
C1407      C1416   1.408       .  A
N1408      O1423   1.263       .  A
N1410      O1421   1.259       .  A
N1410      O1422   1.263       .  A
C1412      C1413   1.410       .  A
C1412      N1417   1.439       .  S
C1413      C1414   1.405       .  A
C1413      H1418   1.084       .  S
C1414      C1415   1.409       .  A
C1415      C1416   1.392       .  A
C1415      N1419   1.437       .  S
C1416      H1420   1.083       .  S
N1417      O1427   1.263       .  A
N1417      O1428   1.263       .  A
N1419      O1425   1.263       .  A
N1419      O1426   1.263       .  A
C1429      C1434   1.407       .  A
C1429      H1439   1.083       .  S
C1430      C1435   1.491       .  S
C1430      C1431   1.417       .  A
C1431      C1432   1.392       .  A
C1431      N1436   1.435       .  S
C1432      H1437   1.084       .  S
C1433      C1434   1.412       .  A
C1434      N1438   1.434       .  S
C1435      C1440   1.413       .  A
C1435      C1444   1.407       .  A
N1436      O1451   1.262       .  A
N1436      O1452   1.263       .  A
N1438      O1449   1.263       .  A
N1438      O1450   1.262       .  A
C1440      C1441   1.396       .  A
C1440      N1445   1.431       .  S
C1441      C1442   1.407       .  A
C1441      H1446   1.084       .  S
C1442      C1443   1.414       .  A
C1443      C1444   1.403       .  A
C1443      N1447   1.434       .  S
C1444      H1448   1.084       .  S
N1445      O1455   1.262       .  A
N1445      O1456   1.262       .  A
N1447      O1453   1.262       .  A
N1447      O1454   1.262       .  A
