geometry optimzed in LAMMPS
_audit_creation_date              2020-11-30 
_audit_creation_method            'lammps2cif' 
_symmetry_space_group_name_H-M    'P1' 
_symmetry_Int_Tables_number       1 
_symmetry_cell_setting            triclinic 
loop_ 
_symmetry_equiv_pos_as_xyz 
  x,y,z 
_cell_length_a                    28.87103399 
_cell_length_b                    28.98192184350059 
_cell_length_c                    28.91271213484982 
_cell_angle_alpha                 89.92397956708552 
_cell_angle_beta                  90.1882496139455 
_cell_angle_gamma                 90.19681190064593 
loop_ 
_atom_site_label 
_atom_site_type_symbol 
_atom_site_fract_x 
_atom_site_fract_y 
_atom_site_fract_z 
_atom_site_charge 
N1          N  0.59156124  0.45528916  0.06000622    -0.07000
N2          N  0.61966233  0.45081653  0.09579678    -0.59100
N3          N  0.56814550  0.41371347  0.45580509    -0.06600
N4          N  0.57735109  0.38246854  0.42453575    -0.61200
N5          N  0.59963117  0.44641601  0.45498736    -0.06200
N6          N  0.63115237  0.43814600  0.42310930    -0.59000
N7          N  0.56036029  0.42216073  0.06045359    -0.05900
N8          N  0.56613336  0.39491421  0.09641098    -0.61600
C9          C  0.60281508  0.41339343  0.11861390     0.95200
C10         C  0.61657188  0.39802611  0.40433996     0.95000
N11         N  0.42747291  0.43866413  0.44551762    -0.07100
N12         N  0.40087004  0.43076097  0.40966144    -0.59600
N13         N  0.45431160  0.41494198  0.05436232    -0.05300
N14         N  0.44617315  0.38700305  0.08949710    -0.60900
N15         N  0.42129014  0.44565090  0.05043765    -0.07200
N16         N  0.38976889  0.43909033  0.08262843    -0.59900
N17         N  0.46061867  0.40806279  0.44862971    -0.04900
N18         N  0.45690964  0.37777319  0.41485318    -0.61000
Mn19       Mn  0.51100225  0.41280037  0.00462442     1.18400
C20         C  0.41984803  0.39320594  0.39051025     0.97300
C21         C  0.40573198  0.40256104  0.10702144     0.98000
N22         N  0.59278469  0.55143959  0.44186060    -0.07200
N23         N  0.62229330  0.55663077  0.40732627    -0.63500
N24         N  0.55347231  0.59313636  0.04176465    -0.06000
N25         N  0.55809432  0.62713425  0.07176489    -0.64200
N26         N  0.58677008  0.56280567  0.04709422    -0.06700
N27         N  0.61489508  0.57532505  0.08053956    -0.63800
N28         N  0.55765923  0.57962041  0.43670265    -0.05600
N29         N  0.56183254  0.60384222  0.39868613    -0.64400
Mn30       Mn  0.59490771  0.50433634  0.50159033     1.10700
C31         C  0.60201069  0.58919791  0.38040438     0.98500
C32         C  0.59623623  0.61495091  0.09595735     0.98600
N33         N  0.41751169  0.55247016  0.03878304    -0.06700
N34         N  0.38570356  0.56082277  0.06973492    -0.62100
N35         N  0.45186116  0.57540721  0.43134472    -0.06000
N36         N  0.44601271  0.59883808  0.39264410    -0.58800
N37         N  0.42162439  0.54175421  0.43411028    -0.07300
N38         N  0.39469733  0.54117780  0.39732070    -0.61600
N39         N  0.44694846  0.58687291  0.03612462    -0.06300
N40         N  0.43581231  0.61973835  0.06530558    -0.58800
Mn41       Mn  0.42040989  0.49455504  0.99260400     1.20200
Mn42       Mn  0.50251519  0.58577608  0.48644345     1.10100
Cl43       Cl  0.50743069  0.49933866  0.99672202    -0.86800
C44         C  0.39761422  0.60275942  0.08609263     0.95500
C45         C  0.41050995  0.57669257  0.37142307     0.95300
N46         N  0.40903888  0.94410277  0.05942707    -0.07000
N47         N  0.37481608  0.91671550  0.07309729    -0.59100
N48         N  0.43960944  0.05090786  0.08657482    -0.06600
N49         N  0.42668863  0.07890730  0.12027671    -0.61200
N50         N  0.40679545  0.04847971  0.05470811    -0.06200
N51         N  0.37105813  0.07433158  0.06649724    -0.59000
N52         N  0.44187452  0.94572620  0.09126270    -0.05900
N53         N  0.43020480  0.91924450  0.12689886    -0.61600
C54         C  0.38821457  0.90113019  0.11527541     0.95200
C55         C  0.38410607  0.09348944  0.10710375     0.95000
N56         N  0.58270515  0.05451856  0.04936468    -0.07100
N57         N  0.61799840  0.08217304  0.05809132    -0.59600
N58         N  0.55570438  0.94940307  0.08760155    -0.05300
N59         N  0.57073438  0.92259013  0.12154056    -0.60900
N60         N  0.58656441  0.95047531  0.05415954    -0.07200
N61         N  0.62268563  0.92463387  0.06457776    -0.59900
N62         N  0.55306749  0.05436422  0.08399683    -0.04900
N63         N  0.56843993  0.08198948  0.11724521    -0.61000
Mn64       Mn  0.49760229  0.00007480  0.08822452     1.18400
C65         C  0.60847884  0.09964917  0.10003473     0.97300
C66         C  0.61258264  0.90728203  0.10661333     0.98000
N67         N  0.40571390  0.04412238  0.44190411    -0.07200
N68         N  0.37052018  0.07001487  0.42792300    -0.63500
N69         N  0.44146874  0.93936049  0.41539795    -0.06000
N70         N  0.43002293  0.90977627  0.38259980    -0.64200
N71         N  0.40960921  0.93973082  0.44800817    -0.06700
N72         N  0.37610033  0.91025158  0.43803953    -0.63800
N73         N  0.43805105  0.04338019  0.40977374    -0.05600
N74         N  0.42535341  0.06867320  0.37394135    -0.64400
Mn75       Mn  0.40730784  0.99427972  0.00092151     1.10700
C76         C  0.38341931  0.08564391  0.38552768     0.98500
C77         C  0.38957553  0.89173291  0.39749304     0.98600
N78         N  0.58510098  0.94565374  0.44569065    -0.06700
N79         N  0.62283092  0.92308423  0.43391897    -0.62100
N80         N  0.55020376  0.04665194  0.40664973    -0.06000
N81         N  0.56462772  0.06810854  0.36882153    -0.58800
N82         N  0.58214383  0.04931819  0.43916333    -0.07300
N83         N  0.61841333  0.07262769  0.42396147    -0.61600
N84         N  0.55348473  0.94285148  0.41289512    -0.06300
N85         N  0.56974206  0.91840759  0.37795582    -0.58800
Mn86       Mn  0.58356942  0.00023837  0.99734650     1.20200
Mn87       Mn  0.49546785  0.99303172  0.41086866     1.10100
Cl88       Cl  0.49581049  0.99707104  0.99942669    -0.86800
C89         C  0.61296451  0.90610925  0.39168042     0.95500
C90         C  0.60731991  0.08437799  0.38010040     0.95300
N91         N  0.94143864  0.58625782  0.06367627    -0.07000
N92         N  0.91703268  0.62210825  0.07790636    -0.59100
N93         N  0.04624145  0.55363147  0.09524193    -0.06600
N94         N  0.07140903  0.56627088  0.13127515    -0.61200
N95         N  0.04603504  0.58665002  0.06386915    -0.06200
N96         N  0.07112047  0.62221164  0.07849530    -0.59000
N97         N  0.94158327  0.55375586  0.09561638    -0.05900
N98         N  0.91710012  0.56709881  0.13179422    -0.61600
C99         C  0.90136205  0.60956369  0.12023528     0.95200
C100        C  0.08720110  0.60893653  0.12062637     0.95000
N101        N  0.04630963  0.41032801  0.06188195    -0.07100
N102        N  0.07232496  0.37499350  0.07412287    -0.59600
N103        N  0.94197564  0.44200558  0.09444755    -0.05300
N104        N  0.91831881  0.42843991  0.13103835    -0.60900
N105        N  0.94216648  0.40926133  0.06278163    -0.07200
N106        N  0.91854775  0.37299655  0.07786637    -0.59900
N107        N  0.04590378  0.44176415  0.09481836    -0.04900
N108        N  0.07149947  0.42799950  0.13026147    -0.61000
Mn109      Mn  0.99390804  0.49778368  0.09488330     1.18400
C110        C  0.08779871  0.38651158  0.11662994     0.97300
C111        C  0.90337359  0.38555710  0.12040001     0.98000
N112        N  0.04550539  0.58649973  0.45216335    -0.07200
N113        N  0.07314190  0.62134372  0.44158876    -0.63500
N114        N  0.94033453  0.55386151  0.41854107    -0.06000
N115        N  0.91249953  0.56700135  0.38436620    -0.64200
N116        N  0.94086220  0.58569572  0.45128211    -0.06700
N117        N  0.91388819  0.62068592  0.43965356    -0.63800
N118        N  0.04615404  0.55491997  0.41929516    -0.05600
N119        N  0.07464625  0.56791829  0.38588550    -0.64400
Mn120      Mn  0.99340817  0.58630222  0.00749844     1.10700
C121        C  0.09127303  0.60921369  0.40046618     0.98500
C122        C  0.89577330  0.60845468  0.39829541     0.98600
N123        N  0.94234698  0.40870426  0.45031121    -0.06700
N124        N  0.91723951  0.37231908  0.43865790    -0.62100
N125        N  0.04805594  0.44205087  0.41796876    -0.06000
N126        N  0.07687739  0.42999179  0.38444158    -0.58800
N127        N  0.04773496  0.41005045  0.45044743    -0.07300
N128        N  0.07620096  0.37604820  0.43934320    -0.61600
N129        N  0.94251437  0.43947144  0.41657981    -0.06300
N130        N  0.91776069  0.42375677  0.38107719    -0.58800
Mn131      Mn  0.99450134  0.40964462  0.00625171     1.20200
Mn132      Mn  0.99410627  0.49772637  0.41733347     1.10100
Cl133      Cl  0.99381097  0.49783403  0.00638229    -0.86800
C134        C  0.90188240  0.38202581  0.39564968     0.95500
C135        C  0.09464765  0.38870172  0.39814580     0.95300
C136        C  0.26063052  0.26056633  0.20728479     0.44600
H137        H  0.26243445  0.26244715  0.16910915    -0.04400
C138        C  0.25879735  0.25397422  0.29643249     0.44700
H139        H  0.25754313  0.25139851  0.33464658    -0.04400
C140        C  0.29811766  0.28976838  0.23149192    -0.18100
C141        C  0.21419820  0.27719815  0.22803896    -0.17800
C142        C  0.27004153  0.21123248  0.22383600    -0.18200
C143        C  0.29746285  0.28587818  0.27890036    -0.18200
C144        C  0.21427080  0.27641548  0.27607479    -0.17800
C145        C  0.26891785  0.20716348  0.27154078    -0.18100
C146        C  0.74885926  0.25392627  0.20595497     0.44600
H147        H  0.75386615  0.25815053  0.16834317    -0.04400
C148        C  0.73800177  0.24116789  0.29352296     0.44700
H149        H  0.73225144  0.23318456  0.33003376    -0.04400
C150        C  0.71296390  0.28698420  0.22711908    -0.18100
C151        C  0.73084462  0.20522345  0.21728634    -0.17800
C152        C  0.79340159  0.26310664  0.23468861    -0.18200
C153        C  0.70745273  0.27970674  0.27400515    -0.18200
C154        C  0.72463626  0.19867972  0.26398254    -0.17800
C155        C  0.78775848  0.25800427  0.28234516    -0.18100
C156        C  0.25279008  0.73490101  0.20949285     0.44600
H157        H  0.24720929  0.74230112  0.17223879    -0.04400
C158        C  0.26804370  0.71680965  0.29568544     0.44700
H159        H  0.27407621  0.70974616  0.33240335    -0.04400
C160        C  0.28186015  0.69191138  0.21676225    -0.18100
C161        C  0.28145259  0.77320669  0.23457586    -0.17800
C162        C  0.20764773  0.72305721  0.23703252    -0.18200
C163        C  0.28994086  0.68160839  0.26207640    -0.18200
C164        C  0.28743094  0.76414681  0.28124866    -0.17800
C165        C  0.21617054  0.71575837  0.28395406    -0.18100
C166        C  0.74939733  0.75153378  0.20753371     0.44600
H167        H  0.75477219  0.75512325  0.16996508    -0.04400
C168        C  0.73923256  0.74957915  0.29603994     0.44700
H169        H  0.73440623  0.74669944  0.33378326    -0.04400
C170        C  0.71141861  0.71758470  0.22220841    -0.18100
C171        C  0.79323050  0.73469693  0.23408277    -0.17800
C172        C  0.73238135  0.79765010  0.22716297    -0.18200
C173        C  0.70596256  0.71682231  0.26980685    -0.18200
C174        C  0.78739936  0.73321594  0.28135325    -0.17800
C175        C  0.73076647  0.79859365  0.27511562    -0.18100
C176        C  0.15797281  0.65206620  0.22422989    -0.10000
C177        C  0.16952709  0.69753873  0.21133729     0.06200
C178        C  0.14968930  0.71476463  0.17011047    -0.03800
C179        C  0.12277941  0.68578995  0.14142228    -0.08200
C180        C  0.11359537  0.63945300  0.15341545     0.05300
C181        C  0.12985556  0.62364383  0.19687603    -0.03200
Br182      Br  0.11954113  0.56244975  0.22081522    -0.02900
H183        H  0.17363497  0.63642895  0.25416479     0.09200
H184        H  0.10917259  0.69969164  0.10937774     0.07300
Br185      Br  0.15708137  0.77803805  0.15207269    -0.03400
C186        C  0.10575350  0.67658720  0.34802880    -0.10000
C187        C  0.12287772  0.63895183  0.37356630     0.06200
C188        C  0.17055508  0.63092722  0.37436555    -0.03800
C189        C  0.20000638  0.65809709  0.34752308    -0.08200
C190        C  0.18322789  0.69354345  0.31829575     0.05300
C191        C  0.13551862  0.70414558  0.32091613    -0.03200
Br192      Br  0.10976644  0.75705358  0.29055905    -0.02900
H193        H  0.06910819  0.68443047  0.34901176     0.09200
H194        H  0.23615891  0.64923438  0.34858711     0.07300
Br195      Br  0.19721107  0.58288447  0.41164872    -0.03400
C196        C  0.16385733  0.28626673  0.34686827    -0.10000
C197        C  0.18382633  0.30611913  0.30713737     0.06200
C198        C  0.17684472  0.35424573  0.30057681    -0.03800
C199        C  0.14769280  0.37944288  0.33012309    -0.08200
C200        C  0.12637785  0.35929558  0.36882430     0.05300
C201        C  0.13592880  0.31196305  0.37753245    -0.03200
Br202      Br  0.11232641  0.27935986  0.43028049    -0.02900
H203        H  0.16977142  0.25011126  0.35406230     0.09200
H204        H  0.14275124  0.41586986  0.32334378     0.07300
Br205      Br  0.20947956  0.39045771  0.25602842    -0.03400
C206        C  0.10116377  0.33032413  0.18111273    -0.10000
C207        C  0.11848097  0.35694628  0.14434229     0.07500
C208        C  0.16478853  0.35227784  0.13160235    -0.03800
C209        C  0.19411666  0.32440273  0.15759120    -0.08200
C210        C  0.17874508  0.30061609  0.19743782     0.05300
C211        C  0.13058100  0.30113762  0.20674562    -0.03200
Br212      Br  0.10193388  0.25824785  0.24851268    -0.02900
H213        H  0.06449448  0.33108146  0.18887950     0.09200
H214        H  0.22936656  0.32284038  0.14608593     0.07300
Br215      Br  0.18992598  0.38443228  0.07919350    -0.03400
C216        C  0.83419377  0.33853609  0.22315437    -0.10000
C217        C  0.82996682  0.29162478  0.21162658     0.06200
C218        C  0.85312073  0.27540539  0.17203593    -0.03800
C219        C  0.87786636  0.30617690  0.14373520    -0.08200
C220        C  0.88013457  0.35368062  0.15387281     0.05300
C221        C  0.85930621  0.36931204  0.19537854    -0.03200
Br222      Br  0.85819139  0.43271046  0.21435415    -0.02900
H223        H  0.81503822  0.35209934  0.25225473     0.09200
H224        H  0.89411818  0.29296068  0.11278514     0.07300
Br225      Br  0.84903111  0.21199495  0.15343926    -0.03400
C226        C  0.82942737  0.33853921  0.38156953    -0.10000
C227        C  0.87441165  0.34865471  0.36760665     0.06200
C228        C  0.89406458  0.32129379  0.33263994    -0.03800
C229        C  0.86672938  0.28852253  0.30878704    -0.08200
C230        C  0.81897437  0.28240412  0.31827716     0.05300
C231        C  0.80249644  0.30477349  0.35934518    -0.03200
Br232      Br  0.74966045  0.28802467  0.39582620    -0.02900
H233        H  0.81572267  0.35594455  0.41173001     0.09200
H234        H  0.88282240  0.26868618  0.28157507     0.07300
Br235      Br  0.95858257  0.32614469  0.31785998    -0.03400
C236        C  0.79525916  0.66304363  0.33248271    -0.10000
C237        C  0.81569932  0.70287437  0.31316502     0.06200
C238        C  0.86270060  0.71172344  0.32321587    -0.03800
C239        C  0.88815827  0.68094645  0.35124208    -0.08200
C240        C  0.86789300  0.64028603  0.36882978     0.05300
C241        C  0.82091711  0.63163937  0.35917214    -0.03200
Br242      Br  0.79003249  0.57770780  0.38238470    -0.02900
H243        H  0.75943099  0.65524622  0.32566542     0.09200
H244        H  0.92413396  0.68854877  0.35890680     0.07300
Br245      Br  0.89290601  0.76617861  0.30064217    -0.03400
C246        C  0.82349439  0.65580665  0.21635635    -0.10000
C247        C  0.82658601  0.70377961  0.20958809     0.06200
C248        C  0.85582593  0.72047920  0.17444981    -0.03800
C249        C  0.88029483  0.68945656  0.14626653    -0.08200
C250        C  0.87644176  0.64128030  0.15243178     0.05300
C251        C  0.84836542  0.62479889  0.18892553    -0.03200
Br252      Br  0.83839089  0.56045139  0.20095425    -0.02900
H253        H  0.79926602  0.64198498  0.24126021     0.09200
H254        H  0.90192041  0.70317296  0.11894051     0.07300
Br255      Br  0.86124677  0.78532825  0.16232153    -0.03400
C256        C  0.62163502  0.12510026  0.30534769    -0.10000
C257        C  0.63971868  0.10721634  0.34676385     0.06200
C258        C  0.68762809  0.11363496  0.35581682    -0.03800
C259        C  0.71503503  0.13945546  0.32523381    -0.08200
C260        C  0.69603354  0.16121318  0.28619625     0.05300
C261        C  0.64832557  0.15340967  0.27625534    -0.03200
Br262      Br  0.61275427  0.19042903  0.23406129    -0.02900
H263        H  0.58500049  0.12130150  0.29800851     0.09200
H264        H  0.75116023  0.14529636  0.33377986     0.07300
Br265      Br  0.71862314  0.09035894  0.40986493    -0.03400
C266        C  0.68019400  0.19865094  0.14702949    -0.10000
C267        C  0.70787680  0.17633095  0.18058351     0.06200
C268        C  0.70723535  0.12760409  0.18195276    -0.03800
C269        C  0.67410609  0.10308394  0.15602238    -0.08200
C270        C  0.64290571  0.12627311  0.12682961     0.05300
C271        C  0.64802433  0.17399998  0.12036013    -0.03200
Br272      Br  0.60959080  0.20730690  0.07770888    -0.02900
H273        H  0.68039431  0.23584378  0.14401244     0.09200
H274        H  0.67285981  0.06579582  0.15844009     0.07300
Br275      Br  0.75224554  0.09306653  0.21641814    -0.03400
C276        C  0.33286672  0.19810627  0.16555147    -0.10000
C277        C  0.29635533  0.17935336  0.19198895     0.06200
C278        C  0.28782513  0.13144922  0.18843741    -0.03800
C279        C  0.31619032  0.10382214  0.16010908    -0.08200
C280        C  0.35376600  0.12301138  0.13570429     0.05300
C281        C  0.36181500  0.17057952  0.13868227    -0.03200
Br282      Br  0.41204391  0.19974617  0.10644936    -0.02900
H283        H  0.34010219  0.23451156  0.16639091     0.09200
H284        H  0.30925446  0.06715253  0.15759070     0.07300
Br285      Br  0.23718013  0.10252815  0.22001069    -0.03400
C286        C  0.34250621  0.16340753  0.28627863    -0.10000
C287        C  0.29554717  0.17037772  0.29698812     0.06200
C288        C  0.27725959  0.14720526  0.33581257    -0.03800
C289        C  0.30598820  0.11925739  0.36361360    -0.08200
C290        C  0.35347462  0.11366313  0.35369681     0.05300
C291        C  0.37120874  0.13552301  0.31354461    -0.03200
Br292      Br  0.43513302  0.13344808  0.29522093    -0.02900
H293        H  0.35820964  0.18237275  0.25824230     0.09200
H294        H  0.29117147  0.10252460  0.39365138     0.07300
Br295      Br  0.21363686  0.15400644  0.35305836    -0.03400
C296        C  0.72121791  0.85293794  0.16100120    -0.10000
C297        C  0.70131004  0.82514394  0.19547861     0.06200
C298        C  0.65208489  0.82283353  0.19746503    -0.03800
C299        C  0.62484970  0.84924391  0.16772099    -0.08200
C300        C  0.64453847  0.87825210  0.13469825     0.05300
C301        C  0.69354357  0.87965065  0.13101373    -0.03200
Br302      Br  0.72532706  0.91924388  0.08826552    -0.02900
H303        H  0.75858509  0.85476529  0.15813493     0.09200
H304        H  0.58748571  0.84759631  0.17102900     0.07300
Br305      Br  0.61755932  0.78984171  0.24273102    -0.03400
C306        C  0.68646710  0.86210810  0.38129724    -0.10000
C307        C  0.64885606  0.88579503  0.36141058     0.06200
C308        C  0.64972096  0.89378416  0.31340006    -0.03800
C309        C  0.68368509  0.87281165  0.28647567    -0.08200
C310        C  0.71267433  0.83818741  0.30475754     0.05300
C311        C  0.71881988  0.83909556  0.35339030    -0.03200
Br312      Br  0.77297201  0.81464439  0.38328596    -0.02900
H313        H  0.69011412  0.86036855  0.41855569     0.09200
H314        H  0.68575872  0.88389295  0.25125379     0.07300
Br315      Br  0.60699228  0.93377226  0.28181906    -0.03400
C316        C  0.30663353  0.84407553  0.30817718    -0.10000
C317        C  0.31129435  0.79610665  0.31499804     0.06200
C318        C  0.33996751  0.78098583  0.35255227    -0.03800
C319        C  0.36377403  0.81317699  0.37955398    -0.08200
C320        C  0.36101571  0.86006926  0.37018426     0.05300
C321        C  0.33206305  0.87578618  0.33449905    -0.03200
Br322      Br  0.32710587  0.94017681  0.31994867    -0.02900
H323        H  0.28393650  0.85717373  0.28138117     0.09200
H324        H  0.38620512  0.80139284  0.40728696     0.07300
Br325      Br  0.35469012  0.71863349  0.36911067    -0.03400
C326        C  0.38235994  0.84447771  0.18055856    -0.10000
C327        C  0.35964161  0.87039522  0.14647635     0.06200
C328        C  0.31069380  0.86628553  0.14382224    -0.03800
C329        C  0.28652288  0.83541594  0.17312832    -0.08200
C330        C  0.30937769  0.80854900  0.20675465     0.05300
C331        C  0.35846568  0.81416833  0.21019652    -0.03200
Br332      Br  0.39796579  0.78003506  0.25110749    -0.02900
H333        H  0.41970293  0.84697857  0.18359318     0.09200
H334        H  0.24925058  0.83276577  0.16987648     0.07300
Br335      Br  0.27404389  0.90387980  0.10324031    -0.03400
C336        C  0.33973756  0.57870139  0.32365406    -0.10000
C337        C  0.38510371  0.59469914  0.33107347     0.06200
C338        C  0.40178852  0.63157636  0.30390695    -0.03800
C339        C  0.37053915  0.65684391  0.27714670    -0.08200
C340        C  0.32325119  0.64598356  0.27730267     0.05300
C341        C  0.30892676  0.60371028  0.29641376    -0.03200
Br342      Br  0.24908026  0.57719333  0.28598390    -0.02900
H343        H  0.32704571  0.54828543  0.34139485     0.09200
H344        H  0.38263395  0.68694443  0.25914901     0.07300
Br345      Br  0.46537526  0.65131748  0.30383930    -0.03400
C346        C  0.32579364  0.60762207  0.12945563    -0.10000
C347        C  0.36844739  0.62789712  0.11826218     0.06200
C348        C  0.38026077  0.67138375  0.13666358    -0.03800
C349        C  0.34950135  0.69280907  0.16642445    -0.08200
C350        C  0.30812725  0.67127412  0.17916861     0.05300
C351        C  0.29563388  0.62900604  0.15937740    -0.03200
Br352      Br  0.23802789  0.59877329  0.16928250    -0.02900
H353        H  0.31537492  0.57480538  0.11480377     0.09200
H354        H  0.35872924  0.72552921  0.18100835     0.07300
Br355      Br  0.43760660  0.70315759  0.12524689    -0.03400
C356        C  0.62669067  0.66608785  0.36040266    -0.10000
C357        C  0.62759609  0.61938801  0.34929544     0.06200
C358        C  0.65169237  0.60449075  0.31008742    -0.03800
C359        C  0.67687190  0.63668575  0.28413662    -0.08200
C360        C  0.67632131  0.68395520  0.29576992     0.05300
C361        C  0.64972831  0.69828666  0.33398211    -0.03200
Br362      Br  0.63961300  0.76033296  0.35304772    -0.02900
H363        H  0.60759656  0.67793515  0.39035095     0.09200
H364        H  0.69697191  0.62480347  0.25494857     0.07300
Br365      Br  0.64799277  0.54219596  0.28881994    -0.03400
C366        C  0.66761872  0.65484375  0.11400102    -0.10000
C367        C  0.62196423  0.64575156  0.12607575     0.06200
C368        C  0.60451149  0.66160869  0.16803742    -0.03800
C369        C  0.63386445  0.68529738  0.19816443    -0.08200
C370        C  0.68118375  0.69283746  0.18777851     0.05300
C371        C  0.69746277  0.67749596  0.14401576    -0.03200
Br372      Br  0.75949350  0.67995283  0.12110284    -0.02900
H373        H  0.68076012  0.64234102  0.08121908     0.09200
H374        H  0.61914790  0.69652274  0.23036056     0.07300
Br375      Br  0.54240479  0.64827928  0.18731801    -0.03400
C376        C  0.62849193  0.32432899  0.36747822    -0.10000
C377        C  0.64134347  0.37060886  0.36983387     0.06200
C378        C  0.67669372  0.38721734  0.34050835    -0.03800
C379        C  0.69585437  0.35754319  0.30752598    -0.08200
C380        C  0.68232457  0.31094223  0.30538694     0.05300
C381        C  0.64932941  0.29446535  0.33718080    -0.03200
Br382      Br  0.63230988  0.23206292  0.34694328    -0.02900
H383        H  0.60306632  0.31020491  0.39113468     0.09200
H384        H  0.72305649  0.37020942  0.28504988     0.07300
Br385      Br  0.70225481  0.44807820  0.34503658    -0.03400
C386        C  0.63780719  0.32613936  0.20946183    -0.10000
C387        C  0.68541642  0.32140588  0.19971471     0.06200
C388        C  0.70425034  0.34921407  0.16386882    -0.03800
C389        C  0.67725093  0.38238843  0.14221386    -0.08200
C390        C  0.63025817  0.38634978  0.15155928     0.05300
C391        C  0.61013715  0.35767105  0.18531067    -0.03200
Br392      Br  0.54526326  0.35986214  0.19938696    -0.02900
H393        H  0.62148808  0.30408142  0.23491926     0.09200
H394        H  0.69242648  0.40274591  0.11460472     0.07300
Br395      Br  0.76357519  0.34352433  0.13619425    -0.03400
C396        C  0.33321868  0.36043707  0.30051325    -0.10000
C397        C  0.32809557  0.31313850  0.30970664     0.06200
C398        C  0.35455721  0.29333272  0.34585304    -0.03800
C399        C  0.38854496  0.31923433  0.36768003    -0.08200
C400        C  0.39410080  0.36580683  0.35744478     0.05300
C401        C  0.36596586  0.38679378  0.32379738    -0.03200
Br402      Br  0.37027989  0.45115158  0.30838142    -0.02900
H403        H  0.31135551  0.37730735  0.27532184     0.09200
H404        H  0.40799432  0.30383786  0.39586575     0.07300
Br405      Br  0.34446734  0.23452064  0.37329403    -0.03400
C406        C  0.40150577  0.34267779  0.16880786    -0.10000
C407        C  0.37968740  0.37844114  0.14396520     0.06200
C408        C  0.33269169  0.38801563  0.15324679    -0.03800
C409        C  0.30801686  0.35931952  0.18291301    -0.08200
C410        C  0.32856581  0.32148791  0.20467666     0.05300
C411        C  0.37659618  0.31489291  0.19974893    -0.03200
Br412      Br  0.40969349  0.26835234  0.23337268    -0.02900
H413        H  0.43795284  0.33571639  0.16365090     0.09200
H414        H  0.27236639  0.36719454  0.18946184     0.07300
Br415      Br  0.29850473  0.43849845  0.12684705    -0.03400
N416        N  0.59151885  0.45539209  0.56035632    -0.07000
N417        N  0.61965894  0.45084058  0.59611168    -0.59100
N418        N  0.56807014  0.41364633  0.95546227    -0.06600
N419        N  0.57726085  0.38239347  0.92419663    -0.61200
N420        N  0.59956435  0.44634076  0.95463452    -0.06200
N421        N  0.63108331  0.43805343  0.92276179    -0.59000
N422        N  0.56030894  0.42227054  0.56078082    -0.05900
N423        N  0.56610799  0.39496273  0.59668843    -0.61600
C424        C  0.60281862  0.41338563  0.61888980     0.95200
C425        C  0.61648290  0.39793994  0.90399798     0.95000
N426        N  0.42741784  0.43861127  0.94534417    -0.07100
N427        N  0.40075868  0.43070998  0.90952799    -0.59600
N428        N  0.45426409  0.41506022  0.55456490    -0.05300
N429        N  0.44607908  0.38710444  0.58967323    -0.60900
N430        N  0.42123694  0.44575860  0.55059840    -0.07200
N431        N  0.38966468  0.43917216  0.58273559    -0.59900
N432        N  0.46055299  0.40799568  0.94841583    -0.04900
N433        N  0.45678455  0.37770039  0.91465215    -0.61000
Mn434      Mn  0.51100982  0.41289792  0.50489623     1.18400
C435        C  0.41969435  0.39314098  0.89035986     0.97300
C436        C  0.40560275  0.40263624  0.60713580     0.98000
N437        N  0.59274394  0.55136367  0.94158279    -0.07200
N438        N  0.62219793  0.55656202  0.90700534    -0.63500
N439        N  0.55337627  0.59327854  0.54194426    -0.06000
N440        N  0.55798370  0.62733677  0.57187860    -0.64200
N441        N  0.58666677  0.56295138  0.54735826    -0.06700
N442        N  0.61477010  0.57553773  0.58079694    -0.63800
N443        N  0.55762187  0.57955737  0.93649718    -0.05600
N444        N  0.56173498  0.60378923  0.89848185    -0.64400
Mn445      Mn  0.59492191  0.50423272  0.00127073     1.10700
C446        C  0.60188136  0.58914636  0.88013083     0.98500
C447        C  0.59610641  0.61519801  0.59612303     0.98600
N448        N  0.41743486  0.55257219  0.53887004    -0.06700
N449        N  0.38563936  0.56090240  0.56984039    -0.62100
N450        N  0.45186457  0.57537265  0.93126521    -0.06000
N451        N  0.44601259  0.59883009  0.89258428    -0.58800
N452        N  0.42163082  0.54171650  0.93401471    -0.07300
N453        N  0.39470074  0.54116397  0.89722981    -0.61600
N454        N  0.44686011  0.58698421  0.53620970    -0.06300
N455        N  0.43572974  0.61983373  0.56541287    -0.58800
Mn456      Mn  0.42039175  0.49462968  0.49273483     1.20200
Mn457      Mn  0.50255403  0.58569019  0.98631382     1.10100
Cl458      Cl  0.50741668  0.49943155  0.49693441    -0.86800
C459        C  0.39754479  0.60283545  0.58621100     0.95500
C460        C  0.41050855  0.57669935  0.87135714     0.95300
N461        N  0.40906505  0.94399968  0.55940892    -0.07000
N462        N  0.37482518  0.91663570  0.57308331    -0.59100
N463        N  0.43961787  0.05080951  0.58658260    -0.06600
N464        N  0.42668753  0.07881941  0.62027443    -0.61200
N465        N  0.40681092  0.04837597  0.55470963    -0.06200
N466        N  0.37107191  0.07423226  0.56648067    -0.59000
N467        N  0.44189176  0.94562308  0.59125345    -0.05900
N468        N  0.43019722  0.91916519  0.62689992    -0.61600
C469        C  0.38820178  0.90106393  0.61527318     0.95200
C470        C  0.38410773  0.09340253  0.60708394     0.95000
N471        N  0.58273675  0.05441087  0.54939352    -0.07100
N472        N  0.61803780  0.08204376  0.55815062    -0.59600
N473        N  0.55573019  0.94930856  0.58759114    -0.05300
N474        N  0.57077221  0.92253718  0.62155618    -0.60900
N475        N  0.58659969  0.95037676  0.55415511    -0.07200
N476        N  0.62273876  0.92457111  0.56461062    -0.59900
N477        N  0.55308635  0.05424840  0.58401590    -0.04900
N478        N  0.56845946  0.08184171  0.61728874    -0.61000
Mn479      Mn  0.49762013  0.99997224  0.58822382     1.18400
C480        C  0.60851037  0.09949207  0.60010273     0.97300
C481        C  0.61263520  0.90724423  0.60665836     0.98000
N482        N  0.40567949  0.04417452  0.94187676    -0.07200
N483        N  0.37046796  0.07002373  0.92785948    -0.63500
N484        N  0.44139283  0.93940139  0.91541493    -0.06000
N485        N  0.42988768  0.90985452  0.88260187    -0.64200
N486        N  0.40953761  0.93980729  0.94803032    -0.06700
N487        N  0.37597835  0.91038844  0.93805316    -0.63800
N488        N  0.43801116  0.04340023  0.90974004    -0.05600
N489        N  0.42529229  0.06863135  0.87387133    -0.64400
Mn490      Mn  0.40734334  0.99419117  0.50091525     1.10700
C491        C  0.38334991  0.08559334  0.88543725     0.98500
C492        C  0.38941008  0.89187448  0.89749203     0.98600
N493        N  0.58505055  0.94569576  0.94574210    -0.06700
N494        N  0.62279028  0.92312022  0.93402144    -0.62100
N495        N  0.55016429  0.04665735  0.90661608    -0.06000
N496        N  0.56461352  0.06806425  0.86876890    -0.58800
N497        N  0.58208797  0.04935590  0.93914331    -0.07300
N498        N  0.61836897  0.07263874  0.92393433    -0.61600
N499        N  0.55345597  0.94286522  0.91292758    -0.06300
N500        N  0.56975037  0.91840309  0.87801467    -0.58800
Mn501      Mn  0.58361816  0.00016187  0.49734517     1.20200
Mn502      Mn  0.49542462  0.99304674  0.91086338     1.10100
Cl503      Cl  0.49584930  0.99699915  0.49942773    -0.86800
C504        C  0.61296413  0.90611613  0.89178938     0.95500
C505        C  0.60730400  0.08433288  0.88005348     0.95300
N506        N  0.94140093  0.58633667  0.56366032    -0.07000
N507        N  0.91700544  0.62219322  0.57789734    -0.59100
N508        N  0.04618243  0.55366376  0.59523518    -0.06600
N509        N  0.07135309  0.56629308  0.63126993    -0.61200
N510        N  0.04599453  0.58668371  0.56386206    -0.06200
N511        N  0.07109466  0.62223313  0.57848823    -0.59000
N512        N  0.94152442  0.55382460  0.59559124    -0.05900
N513        N  0.91703635  0.56716586  0.63176644    -0.61600
C514        C  0.90131736  0.60964047  0.62021812     0.95200
C515        C  0.08716542  0.60895149  0.62061923     0.95000
N516        N  0.04621164  0.41036276  0.56186888    -0.07100
N517        N  0.07218515  0.37500051  0.57411401    -0.59600
N518        N  0.94187139  0.44206331  0.59440370    -0.05300
N519        N  0.91818292  0.42849132  0.63097449    -0.60900
N520        N  0.94206903  0.40933208  0.56272331    -0.07200
N521        N  0.91842179  0.37307230  0.57777505    -0.59900
N522        N  0.04579738  0.44177983  0.59482328    -0.04900
N523        N  0.07134488  0.42796983  0.63028544    -0.61000
Mn524      Mn  0.99382680  0.49782945  0.59486696     1.18400
C525        C  0.08762436  0.38647558  0.61664434     0.97300
C526        C  0.90321788  0.38562150  0.62030117     0.98000
N527        N  0.04550440  0.58641843  0.95217077    -0.07200
N528        N  0.07309920  0.62128359  0.94157080    -0.63500
N529        N  0.94034110  0.55377322  0.91856905    -0.06000
N530        N  0.91251188  0.56691957  0.88439092    -0.64200
N531        N  0.94088195  0.58561441  0.95130339    -0.06700
N532        N  0.91392846  0.62061670  0.93966429    -0.63800
N533        N  0.04614404  0.55484018  0.91930043    -0.05600
N534        N  0.07458669  0.56786293  0.88586034    -0.64400
Mn535      Mn  0.99338283  0.58637383  0.50748466     1.10700
C536        C  0.09118888  0.60917056  0.90042819     0.98500
C537        C  0.89580798  0.60838710  0.89830847     0.98600
N538        N  0.94238593  0.40861449  0.95036135    -0.06700
N539        N  0.91729183  0.37222044  0.93870407    -0.62100
N540        N  0.04807722  0.44196803  0.91798062    -0.06000
N541        N  0.07688023  0.42989720  0.88444137    -0.58800
N542        N  0.04777195  0.40997518  0.95046656    -0.07300
N543        N  0.07622932  0.37596822  0.93935754    -0.61600
N544        N  0.94254387  0.43938027  0.91662795    -0.06300
N545        N  0.91780499  0.42365554  0.88112128    -0.58800
Mn546      Mn  0.99443594  0.40971590  0.50621520     1.20200
Mn547      Mn  0.99411810  0.49763965  0.91735845     1.10100
Cl548      Cl  0.99376579  0.49790334  0.50636028    -0.86800
C549        C  0.90193886  0.38192131  0.89569094     0.95500
C550        C  0.09465543  0.38860960  0.89814849     0.95300
C551        C  0.26046169  0.26043476  0.70719336     0.44600
H552        H  0.26227737  0.26230657  0.66902194    -0.04400
C553        C  0.25866129  0.25381678  0.79633914     0.44700
H554        H  0.25742159  0.25122533  0.83455228    -0.04400
C555        C  0.29793766  0.28965210  0.73139906    -0.18100
C556        C  0.21402104  0.27704342  0.72796691    -0.17800
C557        C  0.26990689  0.21110515  0.72372693    -0.18200
C558        C  0.29729947  0.28574944  0.77880666    -0.18200
C559        C  0.21412109  0.27624727  0.77600619    -0.17800
C560        C  0.26879615  0.20702087  0.77142808    -0.18100
C561        C  0.74896146  0.25368929  0.70593801     0.44600
H562        H  0.75395643  0.25788233  0.66832605    -0.04400
C563        C  0.73818697  0.24093668  0.79351284     0.44700
H564        H  0.73249243  0.23293140  0.83002140    -0.04400
C565        C  0.71302842  0.28670611  0.72710718    -0.18100
C566        C  0.73101798  0.20496798  0.71729505    -0.17800
C567        C  0.79350404  0.26295421  0.73463807    -0.18200
C568        C  0.70756535  0.27942686  0.77400820    -0.18200
C569        C  0.72484815  0.19843328  0.76399381    -0.17800
C570        C  0.78790803  0.25785014  0.78230008    -0.18100
C571        C  0.25268048  0.73494568  0.70954979     0.44600
H572        H  0.24712563  0.74231354  0.67228513    -0.04400
C573        C  0.26786025  0.71692989  0.79576844     0.44700
H574        H  0.27385908  0.70991195  0.83249907    -0.04400
C575        C  0.28174282  0.69195935  0.71688259    -0.18100
C576        C  0.28132142  0.77327460  0.73462359    -0.17800
C577        C  0.20751688  0.72312283  0.73706161    -0.18200
C578        C  0.28978288  0.68169534  0.76221201    -0.18200
C579        C  0.28725512  0.76425417  0.78130921    -0.17800
C580        C  0.21600003  0.71585762  0.78399454    -0.18100
C581        C  0.74943848  0.75167760  0.70765526     0.44600
H582        H  0.75481746  0.75530585  0.67008903    -0.04400
C583        C  0.73927910  0.74960728  0.79616180     0.44700
H584        H  0.73445369  0.74666352  0.83389850    -0.04400
C585        C  0.71141243  0.71776698  0.72228328    -0.18100
C586        C  0.79325075  0.73474713  0.73417535    -0.17800
C587        C  0.73247395  0.79778351  0.72735157    -0.18200
C588        C  0.70596873  0.71693156  0.76987990    -0.18200
C589        C  0.78742331  0.73321257  0.78144262    -0.17800
C590        C  0.73086887  0.79866491  0.77530954    -0.18100
C591        C  0.15792007  0.65208772  0.72422709    -0.10000
C592        C  0.16943233  0.69757451  0.71135110     0.06200
C593        C  0.14959056  0.71479772  0.67012787    -0.03800
C594        C  0.12270602  0.68581298  0.64142830    -0.08200
C595        C  0.11355408  0.63946622  0.65340997     0.05300
C596        C  0.12982735  0.62365223  0.69686259    -0.03200
Br597      Br  0.11954848  0.56244348  0.72077982    -0.02900
H598        H  0.17359276  0.63645770  0.75416316     0.09200
H599        H  0.10909087  0.69971453  0.60939138     0.07300
Br600      Br  0.15694663  0.77808158  0.65211371    -0.03400
C601        C  0.10558359  0.67652949  0.84796339    -0.10000
C602        C  0.12275029  0.63892629  0.87351833     0.06200
C603        C  0.17043488  0.63097443  0.87436587    -0.03800
C604        C  0.19986467  0.65818871  0.84755411    -0.08200
C605        C  0.18305638  0.69360465  0.81830581     0.05300
C606        C  0.13532820  0.70413341  0.82087784    -0.03200
Br607      Br  0.10952064  0.75700432  0.79050345    -0.02900
H608        H  0.06892503  0.68431687  0.84891968     0.09200
H609        H  0.23602590  0.64937705  0.84865853     0.07300
Br610      Br  0.19712997  0.58296605  0.91166909    -0.03400
C611        C  0.16377748  0.28613367  0.84684275    -0.10000
C612        C  0.18372956  0.30597290  0.80709639     0.06200
C613        C  0.17679027  0.35410551  0.80054686    -0.03800
C614        C  0.14767414  0.37932389  0.83011005    -0.08200
C615        C  0.12636150  0.35918776  0.86881881     0.05300
C616        C  0.13588833  0.31184970  0.87752521    -0.03200
Br617      Br  0.11230640  0.27926417  0.93029431    -0.02900
H618        H  0.16967050  0.24997402  0.85403174     0.09200
H619        H  0.14275765  0.41575336  0.82333670     0.07300
Br620      Br  0.20943350  0.39028470  0.75597720    -0.03400
C621        C  0.10099899  0.33036793  0.68120615    -0.10000
C622        C  0.11829152  0.35687701  0.64434257     0.07500
C623        C  0.16454336  0.35202822  0.63147202    -0.03800
C624        C  0.19386837  0.32414466  0.65745249    -0.08200
C625        C  0.17854363  0.30047248  0.69738706     0.05300
C626        C  0.13039784  0.30112325  0.70679666    -0.03200
Br627      Br  0.10171490  0.25830085  0.74860962    -0.02900
H628        H  0.06435046  0.33123473  0.68906188     0.09200
H629        H  0.22908414  0.32248681  0.64585009     0.07300
Br630      Br  0.18961395  0.38392780  0.57887399    -0.03400
C631        C  0.83399090  0.33852334  0.72299831    -0.10000
C632        C  0.82996432  0.29157751  0.71154601     0.06200
C633        C  0.85320022  0.27538607  0.67199317    -0.03800
C634        C  0.87788833  0.30619851  0.64368669    -0.08200
C635        C  0.87997520  0.35372497  0.65375375     0.05300
C636        C  0.85898873  0.36935530  0.69517792    -0.03200
Br637      Br  0.85743631  0.43281179  0.71390734    -0.02900
H638        H  0.81475228  0.35205227  0.75206201     0.09200
H639        H  0.89423673  0.29299190  0.61278465     0.07300
Br640      Br  0.84928382  0.21195178  0.65344404    -0.03400
C641        C  0.82958403  0.33824808  0.88167721    -0.10000
C642        C  0.87450017  0.34853869  0.86763078     0.06200
C643        C  0.89413022  0.32137149  0.83250271    -0.03800
C644        C  0.86683329  0.28858365  0.80863258    -0.08200
C645        C  0.81911690  0.28229766  0.81821439     0.05300
C646        C  0.80267168  0.30450984  0.85938855    -0.03200
Br647      Br  0.74987030  0.28766359  0.89587414    -0.02900
H648        H  0.81590640  0.35552725  0.91192703     0.09200
H649        H  0.88293180  0.26885683  0.78134513     0.07300
Br650      Br  0.95857761  0.32650772  0.81751215    -0.03400
C651        C  0.79533889  0.66285746  0.83230888    -0.10000
C652        C  0.81571474  0.70282738  0.81321378     0.06200
C653        C  0.86264932  0.71179778  0.82345601    -0.03800
C654        C  0.88810950  0.68101827  0.85147746    -0.08200
C655        C  0.86792346  0.64022260  0.86884504     0.05300
C656        C  0.82101692  0.63143768  0.85896594    -0.03200
Br657      Br  0.79025181  0.57729146  0.88183207    -0.02900
H658        H  0.75956509  0.65496592  0.82532070     0.09200
H659        H  0.92403079  0.68871948  0.85929832     0.07300
Br660      Br  0.89275291  0.76640899  0.80112521    -0.03400
C661        C  0.82340849  0.65584611  0.71632233    -0.10000
C662        C  0.82657213  0.70382536  0.70963871     0.06200
C663        C  0.85584968  0.72054104  0.67453955    -0.03800
C664        C  0.88030174  0.68952992  0.64632551    -0.08200
C665        C  0.87639393  0.64134899  0.65242260     0.05300
C666        C  0.84826319  0.62484968  0.68886545    -0.03200
Br667      Br  0.83818497  0.56049845  0.70077754    -0.02900
H668        H  0.79913183  0.64201499  0.74117208     0.09200
H669        H  0.90196450  0.70325973  0.61903432     0.07300
Br670      Br  0.86135031  0.78540232  0.66251587    -0.03400
C671        C  0.62166568  0.12512671  0.80535459    -0.10000
C672        C  0.63973673  0.10710721  0.84671477     0.06200
C673        C  0.68767507  0.11335868  0.85573600    -0.03800
C674        C  0.71513429  0.13914929  0.82517525    -0.08200
C675        C  0.69616090  0.16103063  0.78619582     0.05300
C676        C  0.64841538  0.15341575  0.77629954    -0.03200
Br677      Br  0.61294135  0.19067493  0.73424159    -0.02900
H678        H  0.58500525  0.12146672  0.79805304     0.09200
H679        H  0.75128689  0.14486593  0.83369562     0.07300
Br680      Br  0.71864179  0.08987914  0.90971245    -0.03400
C681        C  0.68030669  0.19841773  0.64708234    -0.10000
C682        C  0.70797979  0.17608090  0.68063170     0.06200
C683        C  0.70727368  0.12735358  0.68202939    -0.03800
C684        C  0.67410440  0.10286563  0.65612262    -0.08200
C685        C  0.64293497  0.12608196  0.62692082     0.05300
C686        C  0.64810614  0.17379754  0.62043222    -0.03200
Br687      Br  0.60972517  0.20713239  0.57775579    -0.02900
H688        H  0.68054596  0.23561030  0.64404038     0.09200
H689        H  0.67281420  0.06557793  0.65855160     0.07300
Br690      Br  0.75225506  0.09276352  0.71648154    -0.03400
C691        C  0.33281170  0.19801450  0.66551539    -0.10000
C692        C  0.29624718  0.17925348  0.69187567     0.06200
C693        C  0.28770162  0.13135864  0.68827361    -0.03800
C694        C  0.31610752  0.10373719  0.65998086    -0.08200
C695        C  0.35374435  0.12292356  0.63566617     0.05300
C696        C  0.36180359  0.17048916  0.63868553    -0.03200
Br697      Br  0.41210041  0.19965616  0.60655888    -0.02900
H698        H  0.34005601  0.23441168  0.66639745     0.09200
H699        H  0.30915563  0.06707444  0.65742170     0.07300
Br700      Br  0.23698162  0.10245096  0.71973803    -0.03400
C701        C  0.34238719  0.16325258  0.78613194    -0.10000
C702        C  0.29543342  0.17023106  0.79685835     0.06200
C703        C  0.27715558  0.14705959  0.83568661    -0.03800
C704        C  0.30589945  0.11914155  0.86350033    -0.08200
C705        C  0.35338302  0.11354778  0.85357110     0.05300
C706        C  0.37109279  0.13535670  0.81337984    -0.03200
Br707      Br  0.43497979  0.13315971  0.79494389    -0.02900
H708        H  0.35808982  0.18221493  0.75808768     0.09200
H709        H  0.29109527  0.10242830  0.89355664     0.07300
Br710      Br  0.21352308  0.15382063  0.85291345    -0.03400
C711        C  0.72128363  0.85294261  0.66108913    -0.10000
C712        C  0.70138807  0.82530369  0.69569955     0.06200
C713        C  0.65216372  0.82308158  0.69776984    -0.03800
C714        C  0.62492528  0.84943678  0.66798015    -0.08200
C715        C  0.64460473  0.87828055  0.63480517     0.05300
C716        C  0.69360637  0.87958043  0.63103635    -0.03200
Br717      Br  0.72539868  0.91889317  0.58803727    -0.02900
H718        H  0.75864669  0.85467968  0.65814118     0.09200
H719        H  0.58756780  0.84785179  0.67135076     0.07300
Br720      Br  0.61764188  0.79019800  0.74311960    -0.03400
C721        C  0.68643617  0.86204302  0.88151276    -0.10000
C722        C  0.64890559  0.88581152  0.86157398     0.06200
C723        C  0.64992717  0.89392237  0.81358808    -0.03800
C724        C  0.68394775  0.87297198  0.78671336    -0.08200
C725        C  0.71280842  0.83824243  0.80499561     0.05300
C726        C  0.71883391  0.83904484  0.85364618    -0.03200
Br727      Br  0.77287736  0.81446972  0.88363676    -0.02900
H728        H  0.68997937  0.86022260  0.91878228     0.09200
H729        H  0.68614825  0.88411948  0.75151080     0.07300
Br730      Br  0.60733547  0.93404429  0.78199918    -0.03400
C731        C  0.30645022  0.84419980  0.80819544    -0.10000
C732        C  0.31108871  0.79623429  0.81505826     0.06200
C733        C  0.33972504  0.78113148  0.85264860    -0.03800
C734        C  0.36353283  0.81333403  0.87963349    -0.08200
C735        C  0.36081902  0.86021768  0.87020797     0.05300
C736        C  0.33188607  0.87592116  0.83449979    -0.03200
Br737      Br  0.32696530  0.94030188  0.81989248    -0.02900
H738        H  0.28377461  0.85728456  0.78137266     0.09200
H739        H  0.38593825  0.80156436  0.90738680     0.07300
Br740      Br  0.35442150  0.71878657  0.86927479    -0.03400
C741        C  0.38227674  0.84451321  0.68064059    -0.10000
C742        C  0.35959486  0.87037041  0.64648789     0.06200
C743        C  0.31065090  0.86623946  0.64377802    -0.03800
C744        C  0.28645255  0.83540570  0.67309992    -0.08200
C745        C  0.30927141  0.80859465  0.70679535     0.05300
C746        C  0.35835382  0.81423778  0.71029077    -0.03200
Br747      Br  0.39782252  0.78016943  0.75128277    -0.02900
H748        H  0.41961202  0.84703098  0.68372071     0.09200
H749        H  0.24918376  0.83273627  0.66980088     0.07300
Br750      Br  0.27403685  0.90375167  0.60308758    -0.03400
C751        C  0.33970788  0.57874686  0.82366521    -0.10000
C752        C  0.38506573  0.59476304  0.83106685     0.06200
C753        C  0.40168909  0.63172680  0.80398037    -0.03800
C754        C  0.37038953  0.65700754  0.77730597    -0.08200
C755        C  0.32311479  0.64611173  0.77747700     0.05300
C756        C  0.30883904  0.60379236  0.79653453    -0.03200
Br757      Br  0.24898718  0.57725062  0.78621137    -0.02900
H758        H  0.32706038  0.54827629  0.84135632     0.09200
H759        H  0.38245274  0.68716721  0.75932466     0.07300
Br760      Br  0.46525280  0.65154377  0.80390491    -0.03400
C761        C  0.32579906  0.60759017  0.62970689    -0.10000
C762        C  0.36839873  0.62793476  0.61843322     0.06200
C763        C  0.38016306  0.67145168  0.63679094    -0.03800
C764        C  0.34939434  0.69286702  0.66655600    -0.08200
C765        C  0.30804860  0.67128824  0.67933263     0.05300
C766        C  0.29562388  0.62896416  0.65962026    -0.03200
Br767      Br  0.23807750  0.59864021  0.66959056    -0.02900
H768        H  0.31542618  0.57473939  0.61511120     0.09200
H769        H  0.35858173  0.72559456  0.68109530     0.07300
Br770      Br  0.43744693  0.70330493  0.62529197    -0.03400
C771        C  0.62661063  0.66606157  0.86032225    -0.10000
C772        C  0.62745867  0.61939315  0.84908090     0.06200
C773        C  0.65154975  0.60457140  0.80984464    -0.03800
C774        C  0.67679214  0.63680055  0.78400535    -0.08200
C775        C  0.67630543  0.68403663  0.79577400     0.05300
C776        C  0.64971521  0.69830011  0.83401330    -0.03200
Br777      Br  0.63970136  0.76029623  0.85328505    -0.02900
H778        H  0.60752604  0.67784956  0.89029830     0.09200
H779        H  0.69688736  0.62496941  0.75479052     0.07300
Br780      Br  0.64775255  0.54235065  0.78838465    -0.03400
C781        C  0.66749290  0.65512993  0.61406970    -0.10000
C782        C  0.62183760  0.64606918  0.62616901     0.06200
C783        C  0.60440309  0.66199185  0.66811432    -0.03800
C784        C  0.63378591  0.68567616  0.69821740    -0.08200
C785        C  0.68111856  0.69312874  0.68782897     0.05300
C786        C  0.69736810  0.67776726  0.64406524    -0.03200
Br787      Br  0.75940050  0.68016145  0.62115028    -0.02900
H788        H  0.68061851  0.64258816  0.58129183     0.09200
H789        H  0.61909675  0.69692987  0.73041349     0.07300
Br790      Br  0.54229033  0.64873225  0.68742200    -0.03400
C791        C  0.62869913  0.32409506  0.86755157    -0.10000
C792        C  0.64132974  0.37044607  0.86962442     0.06200
C793        C  0.67656048  0.38706242  0.84017064    -0.03800
C794        C  0.69580049  0.35731461  0.80731347    -0.08200
C795        C  0.68245118  0.31065400  0.80540442     0.05300
C796        C  0.64960827  0.29417291  0.83736158    -0.03200
Br797      Br  0.63292393  0.23173556  0.84752684    -0.02900
H798        H  0.60339429  0.30998238  0.89134762     0.09200
H799        H  0.72289300  0.36999896  0.78471917     0.07300
Br800      Br  0.70180808  0.44807387  0.84431185    -0.03400
C801        C  0.63786694  0.32593663  0.70955273    -0.10000
C802        C  0.68545259  0.32113809  0.69971580     0.06200
C803        C  0.70424307  0.34893511  0.66383105    -0.03800
C804        C  0.67725580  0.38219838  0.64228657    -0.08200
C805        C  0.63029229  0.38624319  0.65174323     0.05300
C806        C  0.61019491  0.35753666  0.68548819    -0.03200
Br807      Br  0.54534572  0.35977741  0.69966933    -0.02900
H808        H  0.62156289  0.30388529  0.73502797     0.09200
H809        H  0.69240132  0.40255752  0.61466000     0.07300
Br810      Br  0.76344224  0.34308777  0.63590928    -0.03400
C811        C  0.33300790  0.36033567  0.80041928    -0.10000
C812        C  0.32790806  0.31303340  0.80961716     0.06200
C813        C  0.35437960  0.29324279  0.84576378    -0.03800
C814        C  0.38834915  0.31916491  0.86759392    -0.08200
C815        C  0.39389371  0.36573569  0.85734210     0.05300
C816        C  0.36574656  0.38670872  0.82369864    -0.03200
Br817      Br  0.37005506  0.45106149  0.80825896    -0.02900
H818        H  0.31115504  0.37718894  0.77521408     0.09200
H819        H  0.40781382  0.30377786  0.89577177     0.07300
Br820      Br  0.34437798  0.23438949  0.87314772    -0.03400
C821        C  0.40134601  0.34276901  0.66892203    -0.10000
C822        C  0.37950058  0.37845880  0.64399741     0.06200
C823        C  0.33243739  0.38787914  0.65309629    -0.03800
C824        C  0.30776086  0.35914389  0.68272374    -0.08200
C825        C  0.32836026  0.32139534  0.70458769     0.05300
C826        C  0.37641990  0.31491412  0.69978375    -0.03200
Br827      Br  0.40953776  0.26840590  0.73343628    -0.02900
H828        H  0.43782855  0.33591095  0.66388043     0.09200
H829        H  0.27206878  0.36691964  0.68915555     0.07300
Br830      Br  0.29814648  0.43816081  0.62644540    -0.03400
loop_ 
_geom_bond_atom_site_label_1 
_geom_bond_atom_site_label_2 
_geom_bond_distance 
_geom_bond_site_symmetry_2 
_ccdc_geom_bond_type 
N1            N2   1.319       .  A
N1            N7   1.314       .  A
N1         Mn445   2.213       .  S
N2            C9   1.358       .  A
N3            N5   1.311       .  A
N3            N4   1.309       .  A
N3         Mn434   2.180       .  S
N4           C10   1.352       .  A
N5            N6   1.320       .  A
N5          Mn30   2.159       .  S
N6           C10   1.349       .  A
N7            N8   1.315       .  A
N7          Mn19   2.166       .  S
N8            C9   1.346       .  A
C9          C390   1.465       .  S
C10         C377   1.466       .  S
N11          N17   1.310       .  A
N11          N12   1.308       .  A
N11        Mn456   2.132       .  S
N12          C20   1.341       .  A
N13          N14   1.319       .  A
N13          N15   1.311       .  A
N13         Mn19   2.183       .  S
N14          C21   1.353       .  A
N15          N16   1.317       .  A
N15         Mn41   2.191   1_554  S
N16          C21   1.353       .  A
N17          N18   1.318       .  A
N17        Mn434   2.183       .  S
N18          C20   1.356       .  A
Mn19        N418   2.180   1_554  S
Mn19        N432   2.183   1_554  S
Mn19        Cl43   2.521   1_554  S
C20         C400   1.446       .  S
C21         C407   1.481       .  S
N22          N23   1.323       .  A
N22          N28   1.312       .  A
N22         Mn30   2.201       .  S
N23          C31   1.356       .  A
N24          N26   1.313       .  A
N24          N25   1.320       .  A
N24        Mn457   2.182   1_554  S
N25          C32   1.350       .  A
N26          N27   1.311       .  A
N26        Mn445   2.169       .  S
N27          C32   1.347       .  A
N28          N29   1.309       .  A
N28         Mn42   2.157       .  S
N29          C31   1.347       .  A
Mn30        N416   2.214       .  S
Mn30        N441   2.169       .  S
Mn30       Cl458   2.533       .  S
C31         C357   1.455       .  S
C32         C367   1.449       .  S
N33          N34   1.308       .  A
N33          N39   1.310       .  A
N33         Mn41   2.148   1_554  S
N34          C44   1.348       .  A
N35          N36   1.319       .  A
N35          N37   1.309       .  A
N35         Mn42   2.179       .  S
N36          C45   1.353       .  A
N37          N38   1.316       .  A
N37        Mn456   2.176       .  S
N38          C45   1.351       .  A
N39          N40   1.315       .  A
N39        Mn457   2.161   1_554  S
N40          C44   1.349       .  A
Mn41        N426   2.132       .  S
Mn41        N452   2.176       .  S
Mn41        Cl43   2.518       .  S
Mn42        N439   2.182       .  S
Mn42        N454   2.161       .  S
Mn42       Cl458   2.525       .  S
Cl43       Mn445   2.532   1_556  S
Cl43       Mn457   2.525       .  S
C44         C347   1.455       .  S
C45         C337   1.472       .  S
N46          N47   1.326       .  A
N46          N52   1.320       .  A
N46         Mn75   2.230       .  S
N47          C54   1.356       .  A
N48          N50   1.321       .  A
N48          N49   1.324       .  A
N48         Mn64   2.234       .  S
N49          C55   1.355       .  A
N50          N51   1.323       .  A
N50         Mn75   2.212   1_545  S
N51          C55   1.351       .  A
N52          N53   1.328       .  A
N52         Mn64   2.250   1_565  S
N53          C54   1.361       .  A
C54         C327   1.512       .  S
C55         C280   1.482       .  S
N56          N62   1.319       .  A
N56          N57   1.318       .  A
N56         Mn86   2.178   1_554  S
N57          C65   1.344       .  A
N58          N59   1.324       .  A
N58          N60   1.317       .  A
N58         Mn64   2.233   1_565  S
N59          C66   1.360       .  A
N60          N61   1.320       .  A
N60         Mn86   2.186   1_564  S
N61          C66   1.347       .  A
N62          N63   1.326       .  A
N62         Mn64   2.245       .  S
N63          C65   1.358       .  A
Mn64        Cl88   2.569   1_544  S
C65         C270   1.475       .  S
C66         C300   1.489       .  S
N67          N68   1.327       .  A
N67          N73   1.319       .  A
N67        Mn490   2.236   1_545  S
N68          C76   1.359       .  A
N69          N71   1.319       .  A
N69          N70   1.320       .  A
N69         Mn87   2.203       .  S
N70          C77   1.349       .  A
N71          N72   1.320       .  A
N71        Mn490   2.201       .  S
N72          C77   1.349       .  A
N73          N74   1.320       .  A
N73         Mn87   2.212   1_545  S
N74          C76   1.352       .  A
Mn75        N482   2.236   1_564  S
Mn75        N486   2.201   1_554  S
Mn75        Cl88   2.557   1_554  S
C76         C290   1.500       .  S
C77         C320   1.462       .  S
N78          N79   1.318       .  A
N78          N84   1.316       .  A
N78        Mn501   2.176   1_565  S
N79          C89   1.346       .  A
N80          N81   1.325       .  A
N80          N82   1.317       .  A
N80         Mn87   2.216   1_545  S
N81          C90   1.357       .  A
N82          N83   1.320       .  A
N82        Mn501   2.203       .  S
N83          C90   1.350       .  A
N84          N85   1.323       .  A
N84         Mn87   2.223       .  S
N85          C89   1.357       .  A
Mn86        N493   2.176   1_545  S
Mn86        N497   2.203       .  S
Mn86        Cl88   2.536   1_545  S
Mn87       Cl503   2.563       .  S
Cl88       Mn502   2.563       .  S
C89         C307   1.483       .  S
C90         C257   1.497       .  S
N91          N92   1.324       .  A
N91          N97   1.318       .  A
N91        Mn120   2.215       .  S
N92          C99   1.355       .  A
N93          N95   1.318       .  A
N93          N94   1.320       .  A
N93        Mn109   2.210   1_455  S
N94         C100   1.352       .  A
N95          N96   1.326       .  A
N95        Mn120   2.225   1_455  S
N96         C100   1.358       .  A
N97          N98   1.323       .  A
N97        Mn109   2.221       .  S
N98          C99   1.354       .  A
C99         C250   1.497       .  S
C100        C180   1.501       .  S
N101        N107   1.319       .  A
N101        N102   1.319       .  A
N101       Mn131   2.193   1_455  S
N102        C110   1.348       .  A
N103        N104   1.320       .  A
N103        N105   1.320       .  A
N103       Mn109   2.201       .  S
N104        C111   1.350       .  A
N105        N106   1.325       .  A
N105       Mn131   2.229       .  S
N106        C111   1.357       .  A
N107        N108   1.323       .  A
N107       Mn109   2.215   1_455  S
N108        C110   1.352       .  A
Mn109      Cl133   2.559       .  S
C110        C207   1.470       .  S
C111        C220   1.496       .  S
N112        N113   1.321       .  A
N112        N118   1.320       .  A
N112       Mn535   2.200   1_455  S
N113        C121   1.348       .  A
N114        N116   1.323       .  A
N114        N115   1.328       .  A
N114       Mn132   2.253       .  S
N115        C122   1.358       .  A
N116        N117   1.323       .  A
N116       Mn535   2.219       .  S
N117        C122   1.351       .  A
N118        N119   1.324       .  A
N118       Mn132   2.234   1_455  S
N119        C121   1.355       .  A
Mn120       N527   2.199   1_654  S
Mn120       N531   2.219   1_554  S
Mn120      Cl133   2.564       .  S
C121        C187   1.476       .  S
C122        C240   1.491       .  S
N123        N124   1.321       .  A
N123        N129   1.321       .  A
N123       Mn546   2.204       .  S
N124        C134   1.348       .  A
N125        N126   1.328       .  A
N125        N127   1.319       .  A
N125       Mn132   2.247   1_455  S
N126        C135   1.362       .  A
N127        N128   1.326       .  A
N127       Mn546   2.232   1_455  S
N128        C135   1.356       .  A
N129        N130   1.329       .  A
N129       Mn132   2.248       .  S
N130        C134   1.359       .  A
Mn131       N538   2.205   1_554  S
Mn131       N542   2.232   1_654  S
Mn131      Cl133   2.556       .  S
Mn132      Cl548   2.574       .  S
Cl133      Mn547   2.574   1_554  S
C134        C227   1.488       .  S
C135        C200   1.515       .  S
C136        H137   1.106       .  S
C136        C142   1.532       .  S
C136        C141   1.549       .  S
C136        C140   1.539       .  S
C138        H139   1.108       .  S
C138        C144   1.556       .  S
C138        C143   1.534       .  S
C138        C145   1.565       .  S
C140        C143   1.375       .  D
C140        C410   1.489       .  S
C141        C144   1.389       .  D
C141        C210   1.513       .  S
C142        C145   1.385       .  D
C142        C277   1.513       .  S
C143        C397   1.480       .  S
C144        C197   1.527       .  S
C145        C287   1.506       .  S
C146        H147   1.104       .  S
C146        C152   1.551       .  S
C146        C151   1.538       .  S
C146        C150   1.542       .  S
C148        H149   1.093       .  S
C148        C154   1.547       .  S
C148        C153   1.532       .  S
C148        C155   1.550       .  S
C150        C153   1.381       .  D
C150        C387   1.502       .  S
C151        C154   1.375       .  D
C151        C267   1.504       .  S
C152        C155   1.396       .  D
C152        C217   1.496       .  S
C153        C380   1.477       .  S
C154        C260   1.506       .  S
C155        C230   1.544       .  S
C156        H157   1.109       .  S
C156        C162   1.566       .  S
C156        C161   1.560       .  S
C156        C160   1.519       .  S
C158        H159   1.094       .  S
C158        C164   1.538       .  S
C158        C163   1.548       .  S
C158        C165   1.535       .  S
C160        C163   1.363       .  D
C160        C350   1.458       .  S
C161        C164   1.385       .  D
C161        C330   1.531       .  S
C162        C165   1.394       .  D
C162        C177   1.517       .  S
C163        C340   1.479       .  S
C164        C317   1.509       .  S
C165        C190   1.518       .  S
C166        H167   1.102       .  S
C166        C172   1.536       .  S
C166        C171   1.557       .  S
C166        C170   1.531       .  S
C168        H169   1.104       .  S
C168        C174   1.532       .  S
C168        C173   1.546       .  S
C168        C175   1.563       .  S
C170        C173   1.386       .  D
C170        C370   1.503       .  S
C171        C174   1.378       .  D
C171        C247   1.498       .  S
C172        C175   1.388       .  D
C172        C297   1.509       .  S
C173        C360   1.483       .  S
C174        C237   1.512       .  S
C175        C310   1.528       .  S
C176        C177   1.408       .  A
C176        C181   1.399       .  A
C176        H183   1.076       .  S
C177        C178   1.412       .  A
C178        C179   1.411       .  A
C178       Br185   1.917       .  S
C179        C180   1.411       .  A
C179        H184   1.083       .  S
C180        C181   1.416       .  A
C181       Br182   1.926       .  S
C186        C187   1.407       .  A
C186        C191   1.410       .  A
C186        H193   1.083       .  S
C187        C188   1.397       .  A
C188        C189   1.394       .  A
C188       Br195   1.921       .  S
C189        C190   1.415       .  A
C189        H194   1.076       .  S
C190        C191   1.415       .  A
C191       Br192   1.917       .  S
C196        C197   1.408       .  A
C196        C201   1.415       .  A
C196        H203   1.082       .  S
C197        C198   1.422       .  A
C198        C199   1.408       .  A
C198       Br205   1.909       .  S
C199        C200   1.404       .  A
C199        H204   1.083       .  S
C200        C201   1.422       .  A
C201       Br202   1.919       .  S
C206        C207   1.405       .  A
C206        C211   1.409       .  A
C206        H213   1.083       .  S
C207        C208   1.395       .  A
C208        C209   1.390       .  A
C208       Br215   1.921       .  S
C209        C210   1.414       .  A
C209        H214   1.073       .  S
C210        C211   1.417       .  A
C211       Br212   1.919       .  S
C216        C217   1.405       .  A
C216        C221   1.401       .  A
C216        H223   1.083       .  S
C217        C218   1.410       .  A
C218        C219   1.405       .  A
C218       Br225   1.919       .  S
C219        C220   1.409       .  A
C219        H224   1.083       .  S
C220        C221   1.420       .  A
C221       Br222   1.919       .  S
C226        C227   1.391       .  A
C226        C231   1.403       .  A
C226        H233   1.085       .  S
C227        C228   1.408       .  A
C228        C229   1.412       .  A
C228       Br235   1.917       .  S
C229        C230   1.417       .  A
C229        H234   1.082       .  S
C230        C231   1.437       .  A
C231       Br232   1.918       .  S
C236        C237   1.410       .  A
C236        C241   1.404       .  A
C236        H243   1.076       .  S
C237        C238   1.410       .  A
C238        C239   1.411       .  A
C238       Br245   1.915       .  S
C239        C240   1.409       .  A
C239        H244   1.083       .  S
C240        C241   1.406       .  A
C241       Br242   1.918       .  S
C246        C247   1.406       .  A
C246        C251   1.401       .  A
C246        H253   1.081       .  S
C247        C248   1.407       .  A
C248        C249   1.408       .  A
C248       Br255   1.917       .  S
C249        C250   1.411       .  A
C249        H254   1.083       .  S
C250        C251   1.414       .  A
C251       Br252   1.918       .  S
C256        C257   1.404       .  A
C256        C261   1.404       .  A
C256        H263   1.083       .  S
C257        C258   1.419       .  A
C258        C259   1.402       .  A
C258       Br265   1.921       .  S
C259        C260   1.403       .  A
C259        H264   1.084       .  S
C260        C261   1.424       .  A
C261       Br262   1.921       .  S
C266        C267   1.413       .  A
C266        C271   1.400       .  A
C266        H273   1.081       .  S
C267        C268   1.413       .  A
C268        C269   1.405       .  A
C268       Br275   1.919       .  S
C269        C270   1.405       .  A
C269        H274   1.083       .  S
C270        C271   1.403       .  A
C271       Br272   1.918       .  S
C276        C277   1.411       .  A
C276        C281   1.396       .  A
C276        H283   1.075       .  S
C277        C278   1.413       .  A
C278        C279   1.412       .  A
C278       Br285   1.916       .  S
C279        C280   1.409       .  A
C279        H284   1.083       .  S
C280        C281   1.400       .  A
C281       Br282   1.919       .  S
C286        C287   1.407       .  A
C286        C291   1.400       .  A
C286        H293   1.079       .  S
C287        C288   1.410       .  A
C288        C289   1.410       .  A
C288       Br295   1.916       .  S
C289        C290   1.411       .  A
C289        H294   1.083       .  S
C290        C291   1.418       .  A
C291       Br292   1.923       .  S
C296        C297   1.404       .  A
C296        C301   1.410       .  A
C296        H303   1.083       .  S
C297        C298   1.424       .  A
C298        C299   1.393       .  A
C298       Br305   1.902       .  S
C299        C300   1.393       .  A
C299        H304   1.084       .  S
C300        C301   1.420       .  A
C301       Br302   1.919       .  S
C306        C307   1.407       .  A
C306        C311   1.407       .  A
C306        H313   1.083       .  S
C307        C308   1.407       .  A
C308        C309   1.395       .  A
C308       Br315   1.923       .  S
C309        C310   1.410       .  A
C309        H314   1.069       .  S
C310        C311   1.417       .  A
C311       Br312   1.921       .  S
C316        C317   1.411       .  A
C316        C321   1.399       .  A
C316        H323   1.082       .  S
C317        C318   1.432       .  A
C318        C319   1.395       .  A
C318       Br325   1.918       .  S
C319        C320   1.388       .  A
C319        H324   1.085       .  S
C320        C321   1.402       .  A
C321       Br322   1.918       .  S
C326        C327   1.401       .  A
C326        C331   1.407       .  A
C326        H333   1.084       .  S
C327        C328   1.420       .  A
C328        C329   1.415       .  A
C328       Br335   1.918       .  S
C329        C330   1.409       .  A
C329        H334   1.082       .  S
C330        C331   1.429       .  A
C331       Br332   1.917       .  S
C336        C337   1.404       .  A
C336        C341   1.391       .  A
C336        H343   1.083       .  S
C337        C338   1.410       .  A
C338        C339   1.395       .  A
C338       Br345   1.921       .  S
C339        C340   1.400       .  A
C339        H344   1.073       .  S
C340        C341   1.405       .  A
C341       Br342   1.912       .  S
C346        C347   1.401       .  A
C346        C351   1.379       .  A
C346        H353   1.083       .  S
C347        C348   1.409       .  A
C348        C349   1.387       .  A
C348       Br355   1.921       .  S
C349        C350   1.396       .  A
C349        H354   1.071       .  S
C350        C351   1.398       .  A
C351       Br352   1.900       .  S
C356        C357   1.392       .  A
C356        C361   1.376       .  A
C356        H363   1.085       .  S
C357        C358   1.401       .  A
C358        C359   1.400       .  A
C358       Br365   1.911       .  S
C359        C360   1.411       .  A
C359        H364   1.083       .  S
C360        C361   1.411       .  A
C361       Br362   1.905       .  S
C366        C367   1.389       .  A
C366        C371   1.385       .  A
C366        H373   1.085       .  S
C367        C368   1.394       .  A
C368        C369   1.393       .  A
C368       Br375   1.917       .  S
C369        C370   1.416       .  A
C369        H374   1.076       .  S
C370        C371   1.424       .  A
C371       Br372   1.913       .  S
C376        C377   1.392       .  A
C376        C381   1.374       .  A
C376        H383   1.084       .  S
C377        C378   1.412       .  A
C378        C379   1.401       .  A
C378       Br385   1.914       .  S
C379        C380   1.406       .  A
C379        H384   1.084       .  S
C380        C381   1.408       .  A
C381       Br382   1.894       .  S
C386        C387   1.411       .  A
C386        C391   1.400       .  A
C386        H393   1.082       .  S
C387        C388   1.420       .  A
C388        C389   1.387       .  A
C388       Br395   1.901       .  S
C389        C390   1.389       .  A
C389        H394   1.085       .  S
C390        C391   1.407       .  A
C391       Br392   1.919       .  S
C396        C397   1.403       .  A
C396        C401   1.387       .  A
C396        H403   1.080       .  S
C397        C398   1.415       .  A
C398        C399   1.384       .  A
C398       Br405   1.901       .  S
C399        C400   1.390       .  A
C399        H404   1.085       .  S
C400        C401   1.405       .  A
C401       Br402   1.921       .  S
C406        C407   1.409       .  A
C406        C411   1.402       .  A
C406        H413   1.083       .  S
C407        C408   1.412       .  A
C408        C409   1.390       .  A
C408       Br415   1.923       .  S
C409        C410   1.397       .  A
C409        H414   1.073       .  S
C410        C411   1.408       .  A
C411       Br412   1.917       .  S
N416        N417   1.319       .  A
N416        N422   1.314       .  A
N417        C424   1.358       .  A
N418        N420   1.311       .  A
N418        N419   1.309       .  A
N419        C425   1.351       .  A
N420        N421   1.320       .  A
N420       Mn445   2.159   1_556  S
N421        C425   1.349       .  A
N422        N423   1.315       .  A
N422       Mn434   2.167       .  S
N423        C424   1.346       .  A
C424        C805   1.465       .  S
C425        C792   1.466       .  S
N426        N432   1.310       .  A
N426        N427   1.308       .  A
N427        C435   1.341       .  A
N428        N429   1.319       .  A
N428        N430   1.311       .  A
N428       Mn434   2.183       .  S
N429        C436   1.353       .  A
N430        N431   1.317       .  A
N430       Mn456   2.191       .  S
N431        C436   1.353       .  A
N432        N433   1.318       .  A
N433        C435   1.356       .  A
Mn434      Cl458   2.521       .  S
C435        C815   1.446       .  S
C436        C822   1.481       .  S
N437        N438   1.323       .  A
N437        N443   1.312       .  A
N437       Mn445   2.200   1_556  S
N438        C446   1.356       .  A
N439        N441   1.313       .  A
N439        N440   1.320       .  A
N440        C447   1.350       .  A
N441        N442   1.311       .  A
N442        C447   1.347       .  A
N443        N444   1.309       .  A
N443       Mn457   2.157       .  S
N444        C446   1.347       .  A
C446        C772   1.455       .  S
C447        C782   1.449       .  S
N448        N449   1.308       .  A
N448        N454   1.310       .  A
N448       Mn456   2.148       .  S
N449        C459   1.348       .  A
N450        N451   1.319       .  A
N450        N452   1.309       .  A
N450       Mn457   2.179       .  S
N451        C460   1.353       .  A
N452        N453   1.315       .  A
N453        C460   1.351       .  A
N454        N455   1.315       .  A
N455        C459   1.349       .  A
Mn456      Cl458   2.518       .  S
C459        C762   1.455       .  S
C460        C752   1.472       .  S
N461        N462   1.326       .  A
N461        N467   1.320       .  A
N461       Mn490   2.230       .  S
N462        C469   1.356       .  A
N463        N465   1.321       .  A
N463        N464   1.324       .  A
N463       Mn479   2.235   1_545  S
N464        C470   1.355       .  A
N465        N466   1.323       .  A
N465       Mn490   2.212   1_545  S
N466        C470   1.351       .  A
N467        N468   1.328       .  A
N467       Mn479   2.250       .  S
N468        C469   1.361       .  A
C469        C742   1.512       .  S
C470        C695   1.482       .  S
N471        N477   1.319       .  A
N471        N472   1.318       .  A
N471       Mn501   2.178       .  S
N472        C480   1.344       .  A
N473        N474   1.324       .  A
N473        N475   1.317       .  A
N473       Mn479   2.233       .  S
N474        C481   1.360       .  A
N475        N476   1.320       .  A
N475       Mn501   2.187   1_565  S
N476        C481   1.347       .  A
N477        N478   1.326       .  A
N477       Mn479   2.244   1_545  S
N478        C480   1.358       .  A
Mn479      Cl503   2.569       .  S
C480        C685   1.474       .  S
C481        C715   1.489       .  S
N482        N483   1.327       .  A
N482        N488   1.319       .  A
N483        C491   1.359       .  A
N484        N486   1.319       .  A
N484        N485   1.320       .  A
N484       Mn502   2.203       .  S
N485        C492   1.349       .  A
N486        N487   1.320       .  A
N487        C492   1.349       .  A
N488        N489   1.320       .  A
N488       Mn502   2.212   1_545  S
N489        C491   1.352       .  A
Mn490      Cl503   2.557       .  S
C491        C705   1.500       .  S
C492        C735   1.462       .  S
N493        N494   1.318       .  A
N493        N499   1.316       .  A
N494        C504   1.346       .  A
N495        N496   1.325       .  A
N495        N497   1.317       .  A
N495       Mn502   2.216   1_545  S
N496        C505   1.357       .  A
N497        N498   1.320       .  A
N498        C505   1.350       .  A
N499        N500   1.323       .  A
N499       Mn502   2.223       .  S
N500        C504   1.357       .  A
Mn501      Cl503   2.536   1_545  S
C504        C722   1.482       .  S
C505        C672   1.497       .  S
N506        N507   1.324       .  A
N506        N512   1.318       .  A
N506       Mn535   2.215       .  S
N507        C514   1.355       .  A
N508        N510   1.318       .  A
N508        N509   1.320       .  A
N508       Mn524   2.211   1_455  S
N509        C515   1.352       .  A
N510        N511   1.326       .  A
N510       Mn535   2.224   1_455  S
N511        C515   1.358       .  A
N512        N513   1.323       .  A
N512       Mn524   2.221       .  S
N513        C514   1.354       .  A
C514        C665   1.497       .  S
C515        C595   1.501       .  S
N516        N522   1.319       .  A
N516        N517   1.319       .  A
N516       Mn546   2.193   1_455  S
N517        C525   1.348       .  A
N518        N519   1.320       .  A
N518        N520   1.320       .  A
N518       Mn524   2.201       .  S
N519        C526   1.350       .  A
N520        N521   1.325       .  A
N520       Mn546   2.230       .  S
N521        C526   1.357       .  A
N522        N523   1.323       .  A
N522       Mn524   2.215   1_455  S
N523        C525   1.352       .  A
Mn524      Cl548   2.559       .  S
C525        C622   1.470       .  S
C526        C635   1.496       .  S
N527        N528   1.321       .  A
N527        N533   1.320       .  A
N528        C536   1.348       .  A
N529        N531   1.323       .  A
N529        N530   1.328       .  A
N529       Mn547   2.253       .  S
N530        C537   1.358       .  A
N531        N532   1.323       .  A
N532        C537   1.351       .  A
N533        N534   1.324       .  A
N533       Mn547   2.234   1_455  S
N534        C536   1.355       .  A
Mn535      Cl548   2.564       .  S
C536        C602   1.475       .  S
C537        C655   1.491       .  S
N538        N539   1.321       .  A
N538        N544   1.321       .  A
N539        C549   1.348       .  A
N540        N541   1.328       .  A
N540        N542   1.319       .  A
N540       Mn547   2.247   1_455  S
N541        C550   1.362       .  A
N542        N543   1.326       .  A
N543        C550   1.356       .  A
N544        N545   1.329       .  A
N544       Mn547   2.247       .  S
N545        C549   1.359       .  A
Mn546      Cl548   2.556       .  S
C549        C642   1.488       .  S
C550        C615   1.515       .  S
C551        H552   1.106       .  S
C551        C557   1.532       .  S
C551        C556   1.549       .  S
C551        C555   1.539       .  S
C553        H554   1.108       .  S
C553        C559   1.556       .  S
C553        C558   1.534       .  S
C553        C560   1.565       .  S
C555        C558   1.375       .  D
C555        C825   1.489       .  S
C556        C559   1.389       .  D
C556        C625   1.513       .  S
C557        C560   1.385       .  D
C557        C692   1.513       .  S
C558        C812   1.480       .  S
C559        C612   1.527       .  S
C560        C702   1.506       .  S
C561        H562   1.104       .  S
C561        C567   1.551       .  S
C561        C566   1.538       .  S
C561        C565   1.542       .  S
C563        H564   1.093       .  S
C563        C569   1.546       .  S
C563        C568   1.532       .  S
C563        C570   1.550       .  S
C565        C568   1.382       .  D
C565        C802   1.502       .  S
C566        C569   1.375       .  D
C566        C682   1.504       .  S
C567        C570   1.396       .  D
C567        C632   1.496       .  S
C568        C795   1.476       .  S
C569        C675   1.506       .  S
C570        C645   1.544       .  S
C571        H572   1.109       .  S
C571        C577   1.566       .  S
C571        C576   1.561       .  S
C571        C575   1.519       .  S
C573        H574   1.094       .  S
C573        C579   1.538       .  S
C573        C578   1.548       .  S
C573        C580   1.535       .  S
C575        C578   1.363       .  D
C575        C765   1.458       .  S
C576        C579   1.385       .  D
C576        C745   1.531       .  S
C577        C580   1.394       .  D
C577        C592   1.517       .  S
C578        C755   1.479       .  S
C579        C732   1.509       .  S
C580        C605   1.518       .  S
C581        H582   1.103       .  S
C581        C587   1.536       .  S
C581        C586   1.557       .  S
C581        C585   1.531       .  S
C583        H584   1.104       .  S
C583        C589   1.532       .  S
C583        C588   1.546       .  S
C583        C590   1.563       .  S
C585        C588   1.386       .  D
C585        C785   1.503       .  S
C586        C589   1.378       .  D
C586        C662   1.498       .  S
C587        C590   1.388       .  D
C587        C712   1.509       .  S
C588        C775   1.483       .  S
C589        C652   1.511       .  S
C590        C725   1.528       .  S
C591        C592   1.408       .  A
C591        C596   1.399       .  A
C591        H598   1.076       .  S
C592        C593   1.412       .  A
C593        C594   1.411       .  A
C593       Br600   1.917       .  S
C594        C595   1.411       .  A
C594        H599   1.083       .  S
C595        C596   1.416       .  A
C596       Br597   1.926       .  S
C601        C602   1.407       .  A
C601        C606   1.410       .  A
C601        H608   1.083       .  S
C602        C603   1.397       .  A
C603        C604   1.394       .  A
C603       Br610   1.921       .  S
C604        C605   1.415       .  A
C604        H609   1.076       .  S
C605        C606   1.415       .  A
C606       Br607   1.917       .  S
C611        C612   1.408       .  A
C611        C616   1.415       .  A
C611        H618   1.082       .  S
C612        C613   1.422       .  A
C613        C614   1.408       .  A
C613       Br620   1.909       .  S
C614        C615   1.404       .  A
C614        H619   1.083       .  S
C615        C616   1.422       .  A
C616       Br617   1.919       .  S
C621        C622   1.405       .  A
C621        C626   1.409       .  A
C621        H628   1.083       .  S
C622        C623   1.395       .  A
C623        C624   1.390       .  A
C623       Br630   1.921       .  S
C624        C625   1.414       .  A
C624        H629   1.073       .  S
C625        C626   1.417       .  A
C626       Br627   1.919       .  S
C631        C632   1.405       .  A
C631        C636   1.401       .  A
C631        H638   1.083       .  S
C632        C633   1.409       .  A
C633        C634   1.405       .  A
C633       Br640   1.919       .  S
C634        C635   1.409       .  A
C634        H639   1.083       .  S
C635        C636   1.419       .  A
C636       Br637   1.919       .  S
C641        C642   1.391       .  A
C641        C646   1.403       .  A
C641        H648   1.085       .  S
C642        C643   1.408       .  A
C643        C644   1.412       .  A
C643       Br650   1.917       .  S
C644        C645   1.417       .  A
C644        H649   1.082       .  S
C645        C646   1.437       .  A
C646       Br647   1.918       .  S
C651        C652   1.410       .  A
C651        C656   1.404       .  A
C651        H658   1.076       .  S
C652        C653   1.409       .  A
C653        C654   1.411       .  A
C653       Br660   1.915       .  S
C654        C655   1.409       .  A
C654        H659   1.083       .  S
C655        C656   1.406       .  A
C656       Br657   1.918       .  S
C661        C662   1.406       .  A
C661        C666   1.401       .  A
C661        H668   1.081       .  S
C662        C663   1.407       .  A
C663        C664   1.408       .  A
C663       Br670   1.917       .  S
C664        C665   1.411       .  A
C664        H669   1.083       .  S
C665        C666   1.414       .  A
C666       Br667   1.918       .  S
C671        C672   1.404       .  A
C671        C676   1.404       .  A
C671        H678   1.083       .  S
C672        C673   1.419       .  A
C673        C674   1.402       .  A
C673       Br680   1.921       .  S
C674        C675   1.403       .  A
C674        H679   1.084       .  S
C675        C676   1.423       .  A
C676       Br677   1.921       .  S
C681        C682   1.412       .  A
C681        C686   1.400       .  A
C681        H688   1.081       .  S
C682        C683   1.413       .  A
C683        C684   1.405       .  A
C683       Br690   1.919       .  S
C684        C685   1.405       .  A
C684        H689   1.083       .  S
C685        C686   1.403       .  A
C686       Br687   1.918       .  S
C691        C692   1.411       .  A
C691        C696   1.396       .  A
C691        H698   1.075       .  S
C692        C693   1.413       .  A
C693        C694   1.412       .  A
C693       Br700   1.916       .  S
C694        C695   1.409       .  A
C694        H699   1.083       .  S
C695        C696   1.400       .  A
C696       Br697   1.919       .  S
C701        C702   1.407       .  A
C701        C706   1.400       .  A
C701        H708   1.079       .  S
C702        C703   1.410       .  A
C703        C704   1.410       .  A
C703       Br710   1.916       .  S
C704        C705   1.411       .  A
C704        H709   1.083       .  S
C705        C706   1.418       .  A
C706       Br707   1.923       .  S
C711        C712   1.404       .  A
C711        C716   1.410       .  A
C711        H718   1.083       .  S
C712        C713   1.424       .  A
C713        C714   1.393       .  A
C713       Br720   1.903       .  S
C714        C715   1.393       .  A
C714        H719   1.084       .  S
C715        C716   1.420       .  A
C716       Br717   1.919       .  S
C721        C722   1.407       .  A
C721        C726   1.407       .  A
C721        H728   1.083       .  S
C722        C723   1.407       .  A
C723        C724   1.396       .  A
C723       Br730   1.923       .  S
C724        C725   1.410       .  A
C724        H729   1.069       .  S
C725        C726   1.417       .  A
C726       Br727   1.921       .  S
C731        C732   1.411       .  A
C731        C736   1.399       .  A
C731        H738   1.082       .  S
C732        C733   1.432       .  A
C733        C734   1.395       .  A
C733       Br740   1.918       .  S
C734        C735   1.388       .  A
C734        H739   1.084       .  S
C735        C736   1.402       .  A
C736       Br737   1.918       .  S
C741        C742   1.401       .  A
C741        C746   1.407       .  A
C741        H748   1.084       .  S
C742        C743   1.420       .  A
C743        C744   1.415       .  A
C743       Br750   1.918       .  S
C744        C745   1.409       .  A
C744        H749   1.082       .  S
C745        C746   1.429       .  A
C746       Br747   1.917       .  S
C751        C752   1.404       .  A
C751        C756   1.391       .  A
C751        H758   1.083       .  S
C752        C753   1.410       .  A
C753        C754   1.395       .  A
C753       Br760   1.921       .  S
C754        C755   1.400       .  A
C754        H759   1.074       .  S
C755        C756   1.405       .  A
C756       Br757   1.912       .  S
C761        C762   1.401       .  A
C761        C766   1.379       .  A
C761        H768   1.083       .  S
C762        C763   1.409       .  A
C763        C764   1.388       .  A
C763       Br770   1.921       .  S
C764        C765   1.396       .  A
C764        H769   1.070       .  S
C765        C766   1.398       .  A
C766       Br767   1.900       .  S
C771        C772   1.392       .  A
C771        C776   1.376       .  A
C771        H778   1.085       .  S
C772        C773   1.401       .  A
C773        C774   1.400       .  A
C773       Br780   1.910       .  S
C774        C775   1.411       .  A
C774        H779   1.083       .  S
C775        C776   1.411       .  A
C776       Br777   1.905       .  S
C781        C782   1.389       .  A
C781        C786   1.385       .  A
C781        H788   1.085       .  S
C782        C783   1.394       .  A
C783        C784   1.393       .  A
C783       Br790   1.917       .  S
C784        C785   1.416       .  A
C784        H789   1.076       .  S
C785        C786   1.423       .  A
C786       Br787   1.913       .  S
C791        C792   1.392       .  A
C791        C796   1.374       .  A
C791        H798   1.084       .  S
C792        C793   1.412       .  A
C793        C794   1.401       .  A
C793       Br800   1.914       .  S
C794        C795   1.406       .  A
C794        H799   1.084       .  S
C795        C796   1.408       .  A
C796       Br797   1.894       .  S
C801        C802   1.411       .  A
C801        C806   1.400       .  A
C801        H808   1.082       .  S
C802        C803   1.421       .  A
C803        C804   1.387       .  A
C803       Br810   1.901       .  S
C804        C805   1.389       .  A
C804        H809   1.085       .  S
C805        C806   1.407       .  A
C806       Br807   1.919       .  S
C811        C812   1.403       .  A
C811        C816   1.387       .  A
C811        H818   1.080       .  S
C812        C813   1.415       .  A
C813        C814   1.384       .  A
C813       Br820   1.901       .  S
C814        C815   1.390       .  A
C814        H819   1.085       .  S
C815        C816   1.405       .  A
C816       Br817   1.921       .  S
C821        C822   1.409       .  A
C821        C826   1.401       .  A
C821        H828   1.083       .  S
C822        C823   1.412       .  A
C823        C824   1.390       .  A
C823       Br830   1.923       .  S
C824        C825   1.397       .  A
C824        H829   1.072       .  S
C825        C826   1.408       .  A
C826       Br827   1.918       .  S
