geometry optimzed in LAMMPS
_audit_creation_date              2020-11-30 
_audit_creation_method            'lammps2cif' 
_symmetry_space_group_name_H-M    'P1' 
_symmetry_Int_Tables_number       1 
_symmetry_cell_setting            triclinic 
loop_ 
_symmetry_equiv_pos_as_xyz 
  x,y,z 
_cell_length_a                    29.6306301 
_cell_length_b                    29.714457848680347 
_cell_length_c                    29.574945536419747 
_cell_angle_alpha                 90.21457585850352 
_cell_angle_beta                  89.74393937194813 
_cell_angle_gamma                 89.80665775932776 
loop_ 
_atom_site_label 
_atom_site_type_symbol 
_atom_site_fract_x 
_atom_site_fract_y 
_atom_site_fract_z 
_atom_site_charge 
C1          C  0.57031624  0.26793509  0.08735112     0.79700
N2          N  0.55800849  0.24820498  0.04779862    -0.78600
C3          C  0.51454308  0.23569378  0.04134299     0.82100
N4          N  0.48362426  0.24265314  0.07468111    -0.78600
C5          C  0.49546061  0.26271958  0.11429863     0.82200
N6          N  0.53899518  0.27556436  0.12014664    -0.80300
C7          C  0.29917472  0.10140731  0.52612977     0.79700
N8          N  0.30830213  0.13279562  0.49411595    -0.78600
C9          C  0.29430283  0.12663245  0.45085340     0.82100
N10         N  0.27058221  0.08913438  0.44015315    -0.78600
C11         C  0.26117684  0.05753470  0.47178117     0.82200
N12         N  0.27590367  0.06356413  0.51482685    -0.80300
C13         C  0.12388420  0.53852918  0.26632592     0.79700
N14         N  0.08466354  0.52787186  0.24495460    -0.78600
C15         C  0.07873690  0.48588242  0.22744282     0.82100
N16         N  0.11208455  0.45462475  0.23178357    -0.78600
C17         C  0.15129026  0.46495711  0.25304662     0.82200
N18         N  0.15706466  0.50708555  0.26995685    -0.80300
C19         C  0.35390908  0.29013173  0.24821220     0.79700
N20         N  0.35233245  0.26101080  0.28345478    -0.78600
C21         C  0.31893881  0.26419640  0.31492426     0.82100
N22         N  0.28670371  0.29646566  0.31054714    -0.78600
C23         C  0.28768632  0.32576940  0.27541754     0.82200
N24         N  0.32162901  0.32254487  0.24440902    -0.80300
O25         O  0.56872852  0.59108198  0.62619070    -0.82400
C26         C  0.75526592  0.62383175  0.60523447     0.97000
O27         O  0.73787212  0.58602702  0.61441911    -0.71500
O28         O  0.68692887  0.59608679  0.68675332    -0.75100
Al29       Al  0.67570136  0.57088679  0.63014205     1.49000
C30         C  0.65710087  0.61132260  0.71318695     0.92300
O31         O  0.63096167  0.69776975  0.65058615    -0.81300
O32         O  0.62281220  0.64482997  0.52938642    -0.74800
Al33       Al  0.60247331  0.64358117  0.63689381     1.90100
O34         O  0.66138332  0.70978633  0.58420781    -0.73900
O35         O  0.69544884  0.59361735  0.53199056    -0.73800
O36         O  0.73109832  0.65608779  0.59243166    -0.79400
O37         O  0.66621184  0.54169641  0.57526659    -0.77600
O38         O  0.65122784  0.62126725  0.61005159    -1.13800
O39         O  0.61970324  0.54397544  0.65078100    -0.73000
C40         C  0.57876023  0.55361883  0.64322479     0.97800
C41         C  0.64854520  0.72420463  0.62270036     0.94200
Al42       Al  0.67566483  0.64895877  0.56313681     1.55600
O43         O  0.61945108  0.62471349  0.69773009    -0.77600
C44         C  0.68476487  0.55269730  0.53874149     0.98300
C45         C  0.58528699  0.66127611  0.54056278     0.93200
O46         O  0.57562463  0.66794609  0.58192716    -0.82900
C47         C  0.20874832  0.85689020  0.02605021     0.79700
N48         N  0.20192938  0.82450625  0.99428194    -0.78600
C49         C  0.21609241  0.83091758  0.95106894     0.82100
N50         N  0.23657121  0.87005376  0.93962636    -0.78600
C51         C  0.24254139  0.90303014  0.97088366     0.82200
N52         N  0.22896192  0.89625651  0.01425896    -0.80300
C53         C  0.37996915  0.41615108  0.75998306     0.79700
N54         N  0.41723116  0.42825001  0.73596519    -0.78600
C55         C  0.42272870  0.47137446  0.72220183     0.82100
N56         N  0.39133236  0.50276292  0.73360354    -0.78600
C57         C  0.35445372  0.49145088  0.75836816     0.82200
N58         N  0.34856383  0.44787995  0.77112930    -0.80300
C59         C  0.94095395  0.67329177  0.58338338     0.79700
N60         N  0.95223005  0.69452177  0.54417480    -0.78600
C61         C  0.99412546  0.71249883  0.53899763     0.82100
N62         N  0.02458821  0.70873395  0.57301059    -0.78600
C63         C  0.01364299  0.68758067  0.61218156     0.82200
N64         N  0.97162919  0.67020260  0.61725137    -0.80300
C65         C  0.18961756  0.69489627  0.81326530     0.79700
N66         N  0.15644306  0.69809600  0.78173039    -0.78600
C67         C  0.15327808  0.66702815  0.74795348     0.82100
N68         N  0.18329315  0.63237832  0.74639891    -0.78600
C69         C  0.21642553  0.62862676  0.77774213     0.82200
N70         N  0.21971173  0.66039362  0.81064944    -0.80300
O71         O  0.39144596  0.14412632  0.89709232    -0.82400
C72         C  0.35417376  0.11585820  0.71255862     0.97000
O73         O  0.39165183  0.12974624  0.72776055    -0.71500
O74         O  0.37988563  0.20127620  0.77789391    -0.75100
Al75       Al  0.40943197  0.14682244  0.78894322     1.49000
C76         C  0.36462784  0.22750510  0.80771671     0.92300
O77         O  0.28307138  0.15887245  0.83527981    -0.81300
O78         O  0.34605263  0.04276124  0.85016493    -0.74800
Al79       Al  0.33812265  0.15037713  0.86413855     1.90100
O80         O  0.27499666  0.08966367  0.81078103    -0.73900
O81         O  0.39397542  0.04597696  0.77418712    -0.73800
O82         O  0.32572843  0.09844303  0.73879124    -0.79400
O83         O  0.44400815  0.09484321  0.79691939    -0.77600
O84         O  0.36172283  0.12334524  0.81605787    -1.13800
O85         O  0.43715998  0.16931167  0.84440754    -0.73000
C86         C  0.42864975  0.16096703  0.88569223     0.97800
C87         C  0.25805165  0.12764209  0.82138659     0.94200
Al88       Al  0.33726297  0.07309588  0.79518396     1.55600
O89         O  0.35298944  0.21184593  0.84586096    -0.77600
C90         C  0.43483127  0.05669352  0.78123109     0.98300
C91         C  0.32661143  0.05438734  0.88628771     0.93200
O92         O  0.31710282  0.09549531  0.89338493    -0.82900
C93         C  0.07035753  0.17576899  0.84048723     0.79700
N94         N  0.05919274  0.19972838  0.87818616    -0.78600
C95         C  0.01708272  0.21723197  0.88314412     0.82100
N96         N  0.98644967  0.21131233  0.84957224    -0.78600
C97         C  0.99742999  0.18776142  0.81157775     0.82200
N98         N  0.03939088  0.16963761  0.80737839    -0.80300
C99         C  0.80635170  0.35531427  0.39921111     0.79700
N100        N  0.78451625  0.39434410  0.40988159    -0.78600
C101        C  0.76886851  0.40127896  0.45261625     0.82100
N102        N  0.77556448  0.36911110  0.48450252    -0.78600
C103        C  0.79786770  0.33038673  0.47436461     0.82200
N104        N  0.81251582  0.32334915  0.43132308    -0.80300
C105        C  0.63390102  0.91323126  0.66600054     0.79700
N106        N  0.59532004  0.92629521  0.68753828    -0.78600
C107        C  0.58927079  0.97002231  0.69981345     0.82100
N108        N  0.62241446  0.00031687  0.69110799    -0.78600
C109        C  0.66124119  0.98744980  0.67010365     0.82200
N110        N  0.66678035  0.94381610  0.65743375    -0.80300
C111        C  0.85936645  0.16385174  0.67511431     0.79700
N112        N  0.82853586  0.13011101  0.67684748    -0.78600
C113        C  0.79531252  0.12700956  0.64545204     0.82100
N114        N  0.79366842  0.15773779  0.61168972    -0.78600
C115        C  0.82468602  0.19110966  0.60877179     0.82200
N116        N  0.85724906  0.19431004  0.64089781    -0.80300
O117        O  0.89168253  0.31082796  0.02710963    -0.82400
C118        C  0.85532361  0.33164964  0.21299030     0.97000
O119        O  0.89360385  0.32165493  0.19628871    -0.71500
O120        O  0.88703340  0.24978140  0.14451467    -0.75100
Al121      Al  0.91143120  0.30719660  0.13437996     1.49000
C122        C  0.87174082  0.22396947  0.11442930     0.92300
O123        O  0.78434573  0.28760827  0.08945161    -0.81300
O124        O  0.83902541  0.40768701  0.07950978    -0.74800
Al125      Al  0.83915140  0.30053323  0.06068616     1.90100
O126        O  0.77236574  0.35490335  0.11721398    -0.73900
O127        O  0.88688492  0.40503951  0.15436666    -0.73800
O128        O  0.82380939  0.34557533  0.18836707    -0.79400
O129        O  0.94090624  0.36255757  0.12681876    -0.77600
O130        O  0.86114143  0.32736017  0.10934632    -1.13800
O131        O  0.94006451  0.28829528  0.07793010    -0.73000
C132        C  0.93028657  0.29653701  0.03702890     0.97800
C133        C  0.75756530  0.31684272  0.10488973     0.94200
Al134      Al  0.83278376  0.37456890  0.13291017     1.55600
O135        O  0.85792492  0.24007605  0.07732509    -0.77600
C136        C  0.92826150  0.39885838  0.14489376     0.98300
C137        C  0.82287589  0.39621683  0.04196225     0.93200
O138        O  0.81535497  0.35506797  0.03331073    -0.82900
C139        C  0.88998017  0.03478745  0.15666436     0.79700
N140        N  0.85750065  0.00378596  0.14792484    -0.78600
C141        C  0.86355669  0.96011540  0.16013049     0.82100
N142        N  0.90191307  0.94790144  0.18195240    -0.78600
C143        C  0.93467954  0.97860296  0.19058687     0.82200
N144        N  0.92851861  0.02210160  0.17804886    -0.80300
C145        C  0.44634614  0.77126399  0.33939808     0.79700
N146        N  0.45959583  0.75151625  0.37850797    -0.78600
C147        C  0.50323324  0.73949890  0.38464512     0.82100
N148        N  0.53395713  0.74759615  0.35156606    -0.78600
C149        C  0.52159025  0.76855361  0.31275775     0.82200
N150        N  0.47749351  0.78007800  0.30667107    -0.80300
C151        C  0.70480314  0.59127062  0.90097733     0.79700
N152        N  0.72693306  0.55293135  0.91261077    -0.78600
C153        C  0.74129059  0.54701410  0.95565363     0.82100
N154        N  0.73365597  0.57971221  0.98697214    -0.78600
C155        C  0.71095560  0.61782265  0.97583204     0.82200
N156        N  0.69688543  0.62362400  0.93257782    -0.80300
C157        C  0.69215983  0.76259193  0.10644397     0.79700
N158        N  0.65817238  0.76087730  0.13732831    -0.78600
C159        C  0.65462050  0.79244105  0.17041175     0.82100
N160        N  0.68620699  0.82539312  0.17312152    -0.78600
C161        C  0.72041576  0.82788704  0.14245937     0.82200
N162        N  0.72328891  0.79598350  0.10940325    -0.80300
O163        O  0.07317261  0.85784947  0.29657648    -0.82400
C164        C  0.25690702  0.81947692  0.32742683     0.97000
O165        O  0.24167620  0.85714481  0.31410223    -0.71500
O166        O  0.19322051  0.84716165  0.24117185    -0.75100
Al167      Al  0.18100529  0.87568170  0.29653598     1.49000
C168        C  0.16378554  0.83200989  0.21474378     0.92300
O169        O  0.13531988  0.74849838  0.28328740    -0.81300
O170        O  0.11851359  0.81265568  0.39988949    -0.74800
Al171      Al  0.10641482  0.80437791  0.29139380     1.90100
O172        O  0.15762977  0.74124809  0.35357497    -0.73900
O173        O  0.19500559  0.85851897  0.39727341    -0.73800
O174        O  0.23036283  0.79085884  0.34404279    -0.79400
O175        O  0.17199507  0.90968809  0.34965111    -0.77600
O176        O  0.15371853  0.82777116  0.31917348    -1.13800
O177        O  0.12605031  0.90380008  0.27334152    -0.73000
C178        C  0.08457823  0.89489069  0.27966251     0.97800
C179        C  0.14798397  0.72409663  0.31550216     0.94200
Al180      Al  0.17375716  0.80291830  0.36968939     1.55600
O181        O  0.12615866  0.81894558  0.23034502    -0.77600
C182        C  0.18819336  0.89947437  0.38754021     0.98300
C183        C  0.08216360  0.79449851  0.38777876     0.93200
O184        O  0.07590277  0.78455598  0.34645671    -0.82900
C185        C  0.71350533  0.69868226  0.99618674    -0.20900
C186        C  0.70463836  0.65429557  0.00953018    -0.07400
C187        C  0.69031945  0.64590768  0.05439004     0.13400
C188        C  0.68622503  0.68205653  0.08486872    -0.20900
C189        C  0.69659053  0.72634758  0.07199622    -0.07400
C190        C  0.71001851  0.73477312  0.02681978     0.13400
C191        C  0.71948910  0.78168417  0.01012593    -0.24300
H192        H  0.72410884  0.70507176  0.96168114     0.14700
H193        H  0.67547582  0.67554328  0.11930279     0.14700
C194        C  0.67793223  0.59928729  0.07006152    -0.24200
H195        H  0.72639095  0.78215587  0.97318247     0.05000
H196        H  0.74965397  0.79553580  0.02726784     0.08200
H197        H  0.68984289  0.80372295  0.01679128     0.08200
H198        H  0.70808939  0.57707949  0.06954750     0.08200
H199        H  0.65150312  0.58506207  0.04772285     0.08200
H200        H  0.66453124  0.59954997  0.10519977     0.04900
C201        C  0.63134689  0.79627649  0.25085353    -0.20900
C202        C  0.61910739  0.78871129  0.20571450    -0.07400
C203        C  0.57391917  0.77707982  0.19572056     0.13400
C204        C  0.54273320  0.77186797  0.23129346    -0.20900
C205        C  0.55557809  0.77718923  0.27668023    -0.07400
C206        C  0.60047166  0.79032590  0.28645912     0.13400
C207        C  0.61616477  0.79915572  0.33411710    -0.24300
H208        H  0.66581028  0.80569283  0.25847304     0.14700
H209        H  0.50829473  0.76243675  0.22362298     0.14700
C210        C  0.55794541  0.77118737  0.14772970    -0.24200
H211        H  0.65102206  0.81277529  0.33484055     0.05000
H212        H  0.61642724  0.76742707  0.35374469     0.08200
H213        H  0.59358809  0.82417435  0.35074472     0.08200
H214        H  0.57470922  0.74163788  0.13186011     0.08200
H215        H  0.56558956  0.80192322  0.12791314     0.08200
H216        H  0.52096467  0.76541068  0.14618824     0.04900
C217        C  0.38617190  0.82554157  0.31733188    -0.20900
C218        C  0.39815678  0.78250147  0.33269771    -0.07400
C219        C  0.36386757  0.75107555  0.34241813     0.13400
C220        C  0.31865077  0.76411084  0.33857997    -0.20900
C221        C  0.30606852  0.80802039  0.32578240    -0.07400
C222        C  0.34060598  0.83892863  0.31400313     0.13400
C223        C  0.33025999  0.88613690  0.29869558    -0.24300
H224        H  0.41267701  0.84930320  0.30932027     0.14700
H225        H  0.29288116  0.73957797  0.34657668     0.14700
C226        C  0.37448509  0.70325798  0.35595346    -0.24200
H227        H  0.36145826  0.90521676  0.29075429     0.05000
H228        H  0.31199660  0.90471420  0.32584121     0.08200
H229        H  0.30948024  0.88510927  0.26755937     0.08200
H230        H  0.39097723  0.70264310  0.38952718     0.08200
H231        H  0.39699134  0.68739438  0.33030435     0.08200
H232        H  0.34352833  0.68242922  0.35855270     0.04900
C233        C  0.79906626  0.85415841  0.12800859    -0.20900
C234        C  0.75597640  0.86332995  0.14624935    -0.07400
C235        C  0.74837113  0.90580415  0.16733656     0.13400
C236        C  0.78387259  0.93700230  0.17001016    -0.20900
C237        C  0.82704485  0.92688680  0.15327364    -0.07400
C238        C  0.83465454  0.88512434  0.13158637     0.13400
C239        C  0.87994548  0.87349508  0.11117910    -0.24300
H240        H  0.80536998  0.82210810  0.11152274     0.14700
H241        H  0.77824148  0.96921794  0.18646200     0.14700
C242        C  0.70310722  0.91927554  0.18670437    -0.24200
H243        H  0.87936431  0.84045364  0.09350574     0.05000
H244        H  0.90591414  0.87158146  0.13800744     0.08200
H245        H  0.88969875  0.89954612  0.08618263     0.08200
H246        H  0.69470004  0.89784773  0.21618820     0.08200
H247        H  0.67666255  0.91612730  0.16041359     0.08200
H248        H  0.70292190  0.95470539  0.19882225     0.04900
C249        C  0.96865604  0.94505816  0.25874243    -0.20900
C250        C  0.97511552  0.96479373  0.21629938    -0.07400
C251        C  0.01924566  0.96797847  0.19834853     0.13400
C252        C  0.05540695  0.94802324  0.22175430    -0.20900
C253        C  0.04836366  0.92504435  0.26266957    -0.07400
C254        C  0.00465318  0.92562561  0.28246258     0.13400
C255        C  0.99543925  0.90592723  0.32856370    -0.24300
H256        H  0.93485892  0.94382553  0.27290754     0.14700
H257        H  0.08876115  0.94788187  0.20653460     0.14700
C258        C  0.02783739  0.99003333  0.15338138    -0.24200
H259        H  0.96075782  0.91402111  0.34054483     0.05000
H260        H  0.01954234  0.91998746  0.35351037     0.08200
H261        H  0.99839369  0.86873491  0.32767935     0.08200
H262        H  0.01778567  0.02601821  0.15509431     0.05800
H263        H  0.00802611  0.97285596  0.12665730     0.08200
H264        H  0.06406840  0.98841505  0.14367936     0.04900
C265        C  0.87947387  0.09590645  0.10044078    -0.20900
C266        C  0.88220013  0.08261949  0.14579342    -0.07400
C267        C  0.87778935  0.11517984  0.18031114     0.13400
C268        C  0.87252767  0.16057161  0.16870736    -0.20900
C269        C  0.87178965  0.17462942  0.12331018    -0.07400
C270        C  0.87466227  0.14157075  0.08861971     0.13400
C271        C  0.87452964  0.15396735  0.03924956    -0.24300
H272        H  0.88245650  0.07051925  0.07416586     0.14700
H273        H  0.86962677  0.18539944  0.19551703     0.14700
C274        C  0.87798548  0.10203713  0.22950563    -0.24200
H275        H  0.87861469  0.12393656  0.01711308     0.05000
H276        H  0.90284852  0.17725056  0.03185566     0.08200
H277        H  0.84196479  0.17022939  0.03047214     0.08200
H278        H  0.91093803  0.08667349  0.23838545     0.08200
H279        H  0.85059337  0.07747250  0.23610224     0.08200
H280        H  0.87252403  0.13154904  0.25206071     0.04900
C281        C  0.80851501  0.51082754  0.98861429    -0.20900
C282        C  0.76599293  0.50596259  0.96874505    -0.07400
C283        C  0.74631616  0.46284497  0.96581715     0.13400
C284        C  0.76774888  0.42627818  0.98685387    -0.20900
C285        C  0.80831662  0.43204003  0.01057008    -0.07400
C286        C  0.83030478  0.47429366  0.00907778     0.13400
C287        C  0.87658646  0.48129882  0.02901401    -0.24300
H288        H  0.82403847  0.54381364  0.98946380     0.14700
H289        H  0.75114656  0.39382864  0.98742805     0.14700
C290        C  0.70145658  0.45589214  0.94311807    -0.24200
H291        H  0.89037312  0.51486915  0.02019375     0.05000
H292        H  0.90027406  0.45539341  0.01561242     0.08200
H293        H  0.87530489  0.47943915  0.06642637     0.08200
H294        H  0.70413804  0.46491060  0.90682061     0.08200
H295        H  0.67533354  0.47730451  0.95961373     0.08200
H296        H  0.69028414  0.42031216  0.94519050     0.04900
C297        C  0.68393102  0.06258075  0.64271891    -0.20900
C298        C  0.69682687  0.02119782  0.66127518    -0.07400
C299        C  0.74241066  0.01419176  0.67337683     0.13400
C300        C  0.77369818  0.04913373  0.66724432    -0.20900
C301        C  0.76084540  0.09080356  0.64880334    -0.07400
C302        C  0.71518761  0.09733907  0.63594537     0.13400
C303        C  0.69830686  0.14120795  0.61673673    -0.24300
H304        H  0.64890268  0.06778017  0.63358909     0.14700
H305        H  0.80850014  0.04387975  0.67711420     0.14700
C306        C  0.75791455  0.97077725  0.69456111    -0.24200
H307        H  0.66119229  0.14095941  0.61163087     0.05000
H308        H  0.71410474  0.14735168  0.58324588     0.08200
H309        H  0.70617784  0.16928360  0.64026462     0.08200
H310        H  0.75369059  0.94253433  0.67032057     0.08200
H311        H  0.73793249  0.96408711  0.72565724     0.08200
H312        H  0.79411030  0.97202107  0.70408237     0.04900
C313        C  0.80117749  0.25005732  0.49689365    -0.20900
C314        C  0.80535832  0.29545235  0.50942056    -0.07400
C315        C  0.81818794  0.30611463  0.55430245     0.13400
C316        C  0.82573775  0.27116330  0.58532875    -0.20900
C317        C  0.82061058  0.22578261  0.57299360    -0.07400
C318        C  0.80903358  0.21513692  0.52773754     0.13400
C319        C  0.80629378  0.16759475  0.50989993    -0.24300
H320        H  0.79196210  0.24161609  0.46244584     0.14700
H321        H  0.83467404  0.27942100  0.61987751     0.14700
C322        C  0.82508355  0.35404174  0.56965718    -0.24200
H323        H  0.82770161  0.16433764  0.47913050     0.05000
H324        H  0.77085062  0.15977605  0.50080564     0.08200
H325        H  0.81869244  0.14204509  0.53398085     0.08200
H326        H  0.79259863  0.37268812  0.56891510     0.08200
H327        H  0.85005629  0.37082881  0.54732777     0.08200
H328        H  0.83795253  0.35578302  0.60483735     0.04900
C329        C  0.80198696  0.31229405  0.32752050    -0.20900
C330        C  0.82217441  0.34690395  0.35264042    -0.07400
C331        C  0.85689362  0.37279792  0.33294221     0.13400
C332        C  0.86957712  0.36455183  0.28789716    -0.20900
C333        C  0.84771897  0.33164059  0.26207601    -0.07400
C334        C  0.81388593  0.30484601  0.28206323     0.13400
C335        C  0.79030064  0.26868383  0.25532082    -0.24300
H336        H  0.77579365  0.29212201  0.34306447     0.14700
H337        H  0.89510585  0.38535116  0.27206172     0.14700
C338        C  0.88059289  0.40905218  0.35934268    -0.24200
H339        H  0.76554759  0.25008412  0.27641013     0.05000
H340        H  0.81554006  0.24419560  0.24209887     0.08200
H341        H  0.77184147  0.28382244  0.22652424     0.08200
H342        H  0.89603090  0.39438716  0.39011415     0.08200
H343        H  0.85614523  0.43559136  0.36934472     0.08200
H344        H  0.90775066  0.42516531  0.33914057     0.04900
C345        C  0.92016667  0.16712986  0.78871323    -0.20900
C346        C  0.96335047  0.18141555  0.77566706    -0.07400
C347        C  0.97228943  0.18960081  0.72930785     0.13400
C348        C  0.93793001  0.18260518  0.69747956    -0.20900
C349        C  0.89469810  0.16810791  0.71046439    -0.07400
C350        C  0.88581477  0.16014922  0.75690266     0.13400
C351        C  0.83997061  0.14576897  0.77370398    -0.24300
H352        H  0.91334018  0.16107700  0.82422275     0.14700
H353        H  0.94490885  0.18911019  0.66207842     0.14700
C354        C  0.01662349  0.20767645  0.71199453    -0.24200
H355        H  0.83857184  0.14411662  0.81120196     0.05000
H356        H  0.83188708  0.11169886  0.76065233     0.08200
H357        H  0.81392303  0.17022434  0.76254859     0.08200
H358        H  0.03273207  0.18239592  0.68931508     0.08200
H359        H  0.04066618  0.21655506  0.73904475     0.08200
H360        H  0.01039094  0.23891017  0.69245030     0.04900
C361        C  0.97814160  0.28223298  0.91881302    -0.20900
C362        C  0.00404255  0.24305438  0.92426396    -0.07400
C363        C  0.01326131  0.22763195  0.96851492     0.13400
C364        C  0.99163726  0.24840017  0.00557575    -0.20900
C365        C  0.96167072  0.28458399  0.99953365    -0.07400
C366        C  0.95752471  0.30375688  0.95585791     0.13400
C367        C  0.93148084  0.34673914  0.94770462    -0.24300
H368        H  0.97279648  0.29527662  0.88505848     0.14700
H369        H  0.99589378  0.23432774  0.03904950     0.14700
C370        C  0.04360272  0.18777098  0.97683370    -0.24200
H371        H  0.93682131  0.35942564  0.91281140     0.05000
H372        H  0.94296400  0.37326316  0.97154622     0.08200
H373        H  0.89471877  0.34122643  0.95186920     0.08200
H374        H  0.07829671  0.19538032  0.96486411     0.08200
H375        H  0.03055841  0.15775607  0.95872305     0.08200
H376        H  0.04567990  0.17946623  0.01335543     0.04900
C377        C  0.12975310  0.11671046  0.83175234    -0.20900
C378        C  0.11757650  0.16239741  0.83262003    -0.07400
C379        C  0.15060361  0.19545850  0.82504397     0.13400
C380        C  0.19545294  0.18232516  0.81864094    -0.20900
C381        C  0.20872451  0.13684521  0.82024898    -0.07400
C382        C  0.17514973  0.10337915  0.82588275     0.13400
C383        C  0.18677973  0.05401285  0.82716412    -0.24300
H384        H  0.10383854  0.09154189  0.83683020     0.14700
H385        H  0.22064235  0.20819574  0.81344042     0.14700
C386        C  0.13857148  0.24480326  0.82332708    -0.24200
H387        H  0.15638625  0.03290028  0.83260973     0.05000
H388        H  0.21056344  0.04724608  0.85520035     0.08200
H389        H  0.20240332  0.04364894  0.79455157     0.08200
H390        H  0.12483888  0.25600650  0.85648368     0.08200
H391        H  0.11294553  0.25061053  0.79667277     0.08200
H392        H  0.16839281  0.26598829  0.81549886     0.04900
C393        C  0.46696595  0.99785266  0.72985078    -0.20900
C394        C  0.47299605  0.02707231  0.76686140    -0.07400
C395        C  0.51702552  0.03206794  0.78506634     0.13400
C396        C  0.55379163  0.01140273  0.76324514    -0.20900
C397        C  0.54811764  0.98501101  0.72438068    -0.07400
C398        C  0.50398911  0.97665933  0.70844551     0.13400
C399        C  0.49598941  0.94763131  0.66742090    -0.24300
H400        H  0.43347701  0.99359723  0.71590918     0.14700
H401        H  0.58760246  0.01679919  0.77603426     0.14700
C402        C  0.52605775  0.05911748  0.82740442    -0.24200
H403        H  0.45962922  0.94609118  0.65858876     0.05000
H404        H  0.50768684  0.91277075  0.67407366     0.08200
H405        H  0.51460912  0.96142387  0.63793070     0.08200
H406        H  0.50310501  0.04810052  0.85498038     0.08200
H407        H  0.52145394  0.09558491  0.82099626     0.08200
H408        H  0.56126036  0.05452377  0.83934657     0.04900
C409        C  0.09193558  0.66907671  0.63466606    -0.20900
C410        C  0.04822129  0.68188423  0.64792829    -0.07400
C411        C  0.03911396  0.68973478  0.69432868     0.13400
C412        C  0.07408937  0.68484053  0.72603545    -0.20900
C413        C  0.11771933  0.67131734  0.71281780    -0.07400
C414        C  0.12664446  0.66330148  0.66632995     0.13400
C415        C  0.17295263  0.65023969  0.64932953    -0.24300
H416        H  0.09889852  0.66311372  0.59911759     0.14700
H417        H  0.06719221  0.69117066  0.76152486     0.14700
C418        C  0.99312239  0.70468186  0.71052474    -0.24200
H419        H  0.17433435  0.64864866  0.61181720     0.05000
H420        H  0.18230836  0.61642700  0.66204016     0.08200
H421        H  0.19813676  0.67541507  0.66065813     0.08200
H422        H  0.96797726  0.67785758  0.70409161     0.08200
H423        H  0.98290709  0.73588316  0.69267529     0.08200
H424        H  0.99279605  0.71184249  0.74741335     0.04900
C425        C  0.02442253  0.78058460  0.50167811    -0.20900
C426        C  0.00723602  0.73684184  0.49729302    -0.07400
C427        C  0.00781962  0.71583286  0.45435714     0.13400
C428        C  0.02910406  0.73744434  0.41782564    -0.20900
C429        C  0.04998094  0.77950671  0.42325332    -0.07400
C430        C  0.04527979  0.80245943  0.46511050     0.13400
C431        C  0.06197875  0.84996411  0.47156151    -0.24300
H432        H  0.02285586  0.79712067  0.53437938     0.14700
H433        H  0.03197265  0.72005135  0.38569392     0.14700
C434        C  0.98830943  0.66966659  0.44743437    -0.24200
H435        H  0.05144571  0.86396238  0.50486386     0.05000
H436        H  0.04776225  0.87196337  0.44485056     0.08200
H437        H  0.09934863  0.85108773  0.47024310     0.08200
H438        H  0.95143998  0.67098287  0.45375046     0.08200
H439        H  0.00434685  0.64534843  0.47087778     0.08200
H440        H  0.99367887  0.65729937  0.41232698     0.04900
C441        C  0.29531129  0.60185905  0.78674474    -0.20900
C442        C  0.25055412  0.59194536  0.77482206    -0.07400
C443        C  0.23972501  0.54754072  0.76106062     0.13400
C444        C  0.27415970  0.51501805  0.75791632    -0.20900
C445        C  0.31917513  0.52571797  0.76751798    -0.07400
C446        C  0.32975226  0.56947500  0.78310809     0.13400
C447        C  0.37699112  0.58201181  0.79706463    -0.24300
H448        H  0.30367184  0.63555050  0.79804503     0.14700
H449        H  0.26610299  0.48131341  0.74642501     0.14700
C450        C  0.19200048  0.53367561  0.75057237    -0.24200
H451        H  0.37836799  0.61655758  0.81146848     0.05000
H452        H  0.40007055  0.58105228  0.76746167     0.08200
H453        H  0.38919405  0.55827982  0.82326060     0.08200
H454        H  0.17987362  0.55124419  0.71990911     0.08200
H455        H  0.16961577  0.54178144  0.77971300     0.08200
H456        H  0.18949714  0.49696106  0.74388891     0.04900
C457        C  0.36164703  0.35665164  0.81650096    -0.20900
C458        C  0.37276712  0.36829997  0.77182348    -0.07400
C459        C  0.37687101  0.33400752  0.73890679     0.13400
C460        C  0.37169248  0.28905562  0.75178137    -0.20900
C461        C  0.36319944  0.27665163  0.79697201    -0.07400
C462        C  0.35719522  0.31126282  0.82969410     0.13400
C463        C  0.34721305  0.30102475  0.87856377    -0.24300
H464        H  0.35785853  0.38318259  0.84149700     0.14700
H465        H  0.37536557  0.26324869  0.72603425     0.14700
C466        C  0.38579918  0.34443247  0.68975159    -0.24200
H467        H  0.34361044  0.33220383  0.89911487     0.05000
H468        H  0.37518807  0.28091632  0.89319824     0.08200
H469        H  0.31505461  0.28213110  0.88126150     0.08200
H470        H  0.41989777  0.35914911  0.68555410     0.08200
H471        H  0.35993883  0.36836177  0.67712322     0.08200
H472        H  0.38450595  0.31372822  0.66826593     0.04900
C473        C  0.16599676  0.78133752  0.90644220    -0.20900
C474        C  0.20987126  0.79535885  0.91675453    -0.07400
C475        C  0.24694709  0.77541999  0.89412831     0.13400
C476        C  0.23909502  0.74286230  0.86060114    -0.20900
C477        C  0.19506787  0.72973949  0.84896648    -0.07400
C478        C  0.15801975  0.74887889  0.87271662     0.13400
C479        C  0.11019477  0.73426665  0.86395454    -0.24300
H480        H  0.13777839  0.79635173  0.92452353     0.14700
H481        H  0.26761856  0.72778276  0.84307452     0.14700
C482        C  0.29482464  0.78732705  0.90630752    -0.24200
H483        H  0.08601209  0.75050055  0.88779531     0.05000
H484        H  0.10738215  0.69725843  0.86814525     0.08200
H485        H  0.10002614  0.74380006  0.82923306     0.08200
H486        H  0.30051035  0.78079225  0.94279515     0.08200
H487        H  0.30128018  0.82335579  0.89911802     0.08200
H488        H  0.31971493  0.76707663  0.88666849     0.04900
C489        C  0.15217632  0.84156946  0.08624003    -0.20900
C490        C  0.19740333  0.84782089  0.07375079    -0.07400
C491        C  0.23139763  0.84440357  0.10673882     0.13400
C492        C  0.21923099  0.83657928  0.15185587    -0.20900
C493        C  0.17373796  0.83266826  0.16529591    -0.07400
C494        C  0.13972016  0.83457482  0.13168701     0.13400
C495        C  0.09027025  0.83117134  0.14327441    -0.24300
H496        H  0.12638503  0.84358434  0.06043548     0.14700
H497        H  0.24562919  0.83457417  0.17703439     0.14700
C498        C  0.28064751  0.84845444  0.09435108    -0.24200
H499        H  0.06869414  0.83431901  0.11282829     0.05000
H500        H  0.08056031  0.85858056  0.16706301     0.08200
H501        H  0.08316976  0.79796862  0.15879065     0.08200
H502        H  0.28756960  0.88244524  0.08061203     0.08200
H503        H  0.28962277  0.82266421  0.06853761     0.08200
H504        H  0.30284499  0.84339389  0.12408173     0.04900
C505        C  0.26611974  0.02335261  0.93525999    -0.20900
C506        C  0.30983314  0.01874891  0.91702629    -0.07400
C507        C  0.33314377  0.97742576  0.92248383     0.13400
C508        C  0.31092493  0.94097880  0.94270836    -0.20900
C509        C  0.26613057  0.94464465  0.95758860    -0.07400
C510        C  0.24373662  0.98655253  0.95493709     0.13400
C511        C  0.19539112  0.99169414  0.97009530    -0.24300
H512        H  0.24815419  0.05490347  0.93117519     0.14700
H513        H  0.32803804  0.90878839  0.94538128     0.14700
C514        C  0.38133596  0.97128280  0.90694345    -0.24200
H515        H  0.18260463  0.02641614  0.96452743     0.05000
H516        H  0.19255525  0.98414007  0.00671993     0.08200
H517        H  0.17367410  0.96813451  0.95079739     0.08200
H518        H  0.40272439  0.99820309  0.92162658     0.08200
H519        H  0.38354470  0.97223713  0.86952921     0.08200
H520        H  0.39531762  0.93834679  0.91782872     0.04900
C521        C  0.83053686  0.60918579  0.57227979    -0.20900
C522        C  0.80438383  0.63055039  0.60569816    -0.07400
C523        C  0.82401397  0.66381943  0.63342550     0.13400
C524        C  0.86916612  0.67605114  0.62614658    -0.20900
C525        C  0.89461179  0.65668183  0.59095538    -0.07400
C526        C  0.87547909  0.62209703  0.56435755     0.13400
C527        C  0.90230830  0.59876112  0.52780492    -0.24300
H528        H  0.81502471  0.58398935  0.55080705     0.14700
H529        H  0.88425349  0.70198149  0.64701639     0.14700
C530        C  0.79715857  0.68655532  0.67047248    -0.24200
H531        H  0.88266287  0.57148224  0.51138695     0.05000
H532        H  0.93329362  0.58368609  0.54242089     0.08200
H533        H  0.91180146  0.62327362  0.50138310     0.08200
H534        H  0.78431768  0.66086799  0.69442296     0.08200
H535        H  0.76817516  0.70521400  0.65592387     0.08200
H536        H  0.81798859  0.71090854  0.68977272     0.04900
C537        C  0.71295439  0.60746963  0.77474977    -0.20900
C538        C  0.66726375  0.61118871  0.76236838    -0.07400
C539        C  0.63375313  0.61080649  0.79677839     0.13400
C540        C  0.64698570  0.60512153  0.84208703    -0.20900
C541        C  0.69249382  0.59915749  0.85354182    -0.07400
C542        C  0.72591984  0.60123253  0.81964460     0.13400
C543        C  0.77545796  0.59764110  0.83072511    -0.24300
H544        H  0.73900244  0.60860878  0.74894264     0.14700
H545        H  0.62165384  0.60411516  0.86862367     0.14700
C546        C  0.58419561  0.61507518  0.78631998    -0.24200
H547        H  0.79703695  0.60203362  0.80025816     0.05000
H548        H  0.78307331  0.56402522  0.84504424     0.08200
H549        H  0.78466856  0.62411713  0.85558909     0.08200
H550        H  0.57357119  0.58744206  0.76342193     0.08200
H551        H  0.57742951  0.64805280  0.77015084     0.08200
H552        H  0.56309002  0.61318705  0.81738455     0.04900
C553        C  0.64794669  0.80455324  0.59947043    -0.20900
C554        C  0.65048270  0.77282315  0.63449659    -0.07400
C555        C  0.65055544  0.78827969  0.68011317     0.13400
C556        C  0.64539186  0.83441365  0.68911929    -0.20900
C557        C  0.64101581  0.86555927  0.65409148    -0.07400
C558        C  0.64320632  0.85074559  0.60876977     0.13400
C559        C  0.63867767  0.88344183  0.57026457    -0.24300
H560        H  0.64782627  0.79307109  0.56464669     0.14700
H561        H  0.64454137  0.84635415  0.72381048     0.14700
C562        C  0.65672254  0.75688885  0.71970040    -0.24200
H563        H  0.63994237  0.86612698  0.53692935     0.05000
H564        H  0.66663967  0.90817248  0.57136198     0.08200
H565        H  0.60592100  0.90153917  0.57299470     0.08200
H566        H  0.68760338  0.73614427  0.71465262     0.08200
H567        H  0.62687480  0.73479905  0.72365035     0.08200
H568        H  0.66055350  0.77563938  0.75201692     0.04900
C569        C  0.53685407  0.72021811  0.50665738    -0.20900
C570        C  0.55530261  0.67669632  0.50388380    -0.07400
C571        C  0.55158793  0.65212584  0.46290799     0.13400
C572        C  0.53289934  0.67303415  0.42484211    -0.20900
C573        C  0.51740835  0.71754258  0.42687478    -0.07400
C574        C  0.51804075  0.74101352  0.46845594     0.13400
C575        C  0.50132057  0.78884352  0.47181912    -0.24300
H576        H  0.53994124  0.73913343  0.53790527     0.14700
H577        H  0.53139753  0.65496781  0.39296461     0.14700
C578        C  0.56727336  0.60386711  0.45904569    -0.24200
H579        H  0.50543830  0.80273162  0.50646878     0.05000
H580        H  0.46492922  0.79028389  0.46318315     0.08200
H581        H  0.52057309  0.81042969  0.44804423     0.08200
H582        H  0.55137778  0.58347973  0.48614605     0.08200
H583        H  0.60451547  0.60161995  0.46177022     0.08200
H584        H  0.55785754  0.58879942  0.42599881     0.04900
C585        C  0.73542996  0.52284471  0.47783747    -0.20900
C586        C  0.69857017  0.51594486  0.50713573    -0.07400
C587        C  0.68045475  0.47181771  0.51090208     0.13400
C588        C  0.70295376  0.43572659  0.49011546    -0.20900
C589        C  0.74248059  0.44204624  0.46492880    -0.07400
C590        C  0.75752902  0.48637191  0.45649624     0.13400
C591        C  0.79824187  0.49522421  0.42732615    -0.24300
H592        H  0.74895137  0.55646167  0.47397316     0.14700
H593        H  0.69060118  0.40179152  0.49519715     0.14700
C594        C  0.63817170  0.46157681  0.53767350    -0.24200
H595        H  0.80619657  0.53168405  0.42559570     0.05000
H596        H  0.79168312  0.48326580  0.39238497     0.08200
H597        H  0.82810442  0.47746452  0.44124002     0.08200
H598        H  0.61068892  0.48505269  0.52789555     0.08200
H599        H  0.64471469  0.46411922  0.57449399     0.08200
H600        H  0.62607563  0.42679939  0.53125257     0.04900
C601        C  0.50573990  0.47514853  0.71389235    -0.20900
C602        C  0.46305278  0.48469102  0.69599927    -0.07400
C603        C  0.45984225  0.51044599  0.65605204     0.13400
C604        C  0.49894527  0.52959655  0.63767846    -0.20900
C605        C  0.54142042  0.52360014  0.65787317    -0.07400
C606        C  0.54504385  0.49441717  0.69557883     0.13400
C607        C  0.58945906  0.48535205  0.71856012    -0.24300
H608        H  0.50803500  0.45478419  0.74413795     0.14700
H609        H  0.49586049  0.55081193  0.60808088     0.14700
C610        C  0.41586246  0.51850335  0.63185153    -0.24200
H611        H  0.58555264  0.46232189  0.74779907     0.05000
H612        H  0.60404406  0.51723856  0.73144516     0.08200
H613        H  0.61328237  0.46926358  0.69430119     0.08200
H614        H  0.40772956  0.55500779  0.63232559     0.08200
H615        H  0.38720076  0.49984236  0.64684569     0.08200
H616        H  0.41915093  0.50715965  0.59616083     0.04900
C617        C  0.17400751  0.38726096  0.27403359    -0.20900
C618        C  0.18680061  0.43003483  0.25874068    -0.07400
C619        C  0.23278341  0.43822184  0.24877375     0.13400
C620        C  0.26462529  0.40349369  0.25437420    -0.20900
C621        C  0.25207482  0.36092249  0.27060391    -0.07400
C622        C  0.20594017  0.35278084  0.28062028     0.13400
C623        C  0.18961850  0.30761493  0.29694426    -0.24300
H624        H  0.13873305  0.38098618  0.28150746     0.14700
H625        H  0.29978532  0.40983294  0.24646690     0.14700
C626        C  0.24836941  0.48298141  0.23079878    -0.24200
H627        H  0.15225663  0.30657170  0.29994897     0.05000
H628        H  0.20353853  0.30041822  0.33092764     0.08200
H629        H  0.20014032  0.28086128  0.27275574     0.08200
H630        H  0.24293913  0.50966367  0.25660314     0.08200
H631        H  0.22940786  0.49145927  0.19965263     0.08200
H632        H  0.28490184  0.48255966  0.22222351     0.04900
C633        C  0.16879293  0.60872649  0.26508068    -0.20900
C634        C  0.13199803  0.58484258  0.28290307    -0.07400
C635        C  0.10403383  0.60561797  0.31580093     0.13400
C636        C  0.11246835  0.65035989  0.32873050    -0.20900
C637        C  0.14745829  0.67500291  0.30872845    -0.07400
C638        C  0.17630580  0.65391172  0.27699473     0.13400
C639        C  0.21462585  0.67933763  0.25540567    -0.24300
H640        H  0.19062684  0.59251057  0.24039204     0.14700
H641        H  0.09021700  0.66694383  0.35278018     0.14700
C642        C  0.06528686  0.58086760  0.33723572    -0.24200
H643        H  0.23456715  0.65761565  0.23204656     0.05000
H644        H  0.23759448  0.69220550  0.28202812     0.08200
H645        H  0.20126362  0.70814857  0.23571123     0.08200
H646        H  0.07765394  0.54937567  0.35309523     0.08200
H647        H  0.03994230  0.57267024  0.31119014     0.08200
H648        H  0.04824649  0.60145124  0.36373268     0.04900
C649        C  0.04173894  0.45552068  0.15894721    -0.20900
C650        C  0.03711139  0.47365397  0.20258123    -0.07400
C651        C  0.99386262  0.47495194  0.22293510     0.13400
C652        C  0.95751410  0.45342514  0.20143183    -0.20900
C653        C  0.96328211  0.43129685  0.15972632    -0.07400
C654        C  0.00521266  0.43513334  0.13684339     0.13400
C655        C  0.01177642  0.41799231  0.08914836    -0.24300
H656        H  0.07458405  0.45602737  0.14265417     0.14700
H657        H  0.92519337  0.45153527  0.21862173     0.14700
C658        C  0.98627718  0.49717397  0.26809230    -0.24200
H659        H  0.04498224  0.42826686  0.07508132     0.05000
H660        H  0.98509011  0.43206806  0.06699014     0.08200
H661        H  0.01065838  0.38072676  0.08805485     0.08200
H662        H  0.99265088  0.53372922  0.26474724     0.08200
H663        H  0.00922597  0.48251401  0.29374189     0.08200
H664        H  0.95101099  0.49295238  0.28021059     0.04900
C665        C  0.29914196  0.20692356  0.42833919    -0.20900
C666        C  0.30320367  0.16136819  0.41607250    -0.07400
C667        C  0.31536541  0.15012929  0.37103350     0.13400
C668        C  0.32158589  0.18462436  0.33933289    -0.20900
C669        C  0.31529922  0.23001565  0.35108101    -0.07400
C670        C  0.30476934  0.24138307  0.39641016     0.13400
C671        C  0.30066424  0.28969057  0.41167036    -0.24300
H672        H  0.29046647  0.21560755  0.46294027     0.14700
H673        H  0.33019664  0.17598405  0.30469884     0.14700
C674        C  0.32290089  0.10205517  0.35617085    -0.24200
H675        H  0.29538861  0.29233940  0.44879322     0.05000
H676        H  0.27141761  0.30606954  0.39514237     0.08200
H677        H  0.33205525  0.30814223  0.40304575     0.08200
H678        H  0.29069340  0.08317144  0.35729998     0.08200
H679        H  0.34808179  0.08568712  0.37848516     0.08200
H680        H  0.33583709  0.10000297  0.32091300     0.04900
C681        C  0.29613579  0.11860361  0.65286396    -0.20900
C682        C  0.34234325  0.11819168  0.66380266    -0.07400
C683        C  0.37458104  0.11566101  0.62834155     0.13400
C684        C  0.35956877  0.11141958  0.58337475    -0.20900
C685        C  0.31338786  0.10902889  0.57325697    -0.07400
C686        C  0.28132445  0.11395138  0.60822680     0.13400
C687        C  0.23141246  0.11491966  0.59850966    -0.24300
H688        H  0.27118830  0.12163457  0.67964073     0.14700
H689        H  0.38395659  0.10844624  0.55608789     0.14700
C690        C  0.42454607  0.11550463  0.63753407    -0.24200
H691        H  0.21112544  0.12066548  0.62968953     0.05000
H692        H  0.22071416  0.08237876  0.58357521     0.08200
H693        H  0.22377825  0.14254608  0.57451384     0.08200
H694        H  0.43334957  0.08677098  0.65977068     0.08200
H695        H  0.43436183  0.14758915  0.65406624     0.08200
H696        H  0.44461314  0.11213576  0.60588265     0.04900
C697        C  0.17943892  0.97826493  0.41395969    -0.20900
C698        C  0.20190370  0.93676421  0.41831638    -0.07400
C699        C  0.24059580  0.93439396  0.44632340     0.13400
C700        C  0.25734692  0.97407226  0.46631842    -0.20900
C701        C  0.23710582  0.01602472  0.45819106    -0.07400
C702        C  0.19660765  0.01783784  0.43322252     0.13400
C703        C  0.17134479  0.06145084  0.42660730    -0.24300
H704        H  0.14927652  0.98018251  0.39342758     0.14700
H705        H  0.28814830  0.97278104  0.48592149     0.14700
C706        C  0.26621752  0.89103696  0.45295106    -0.24200
H707        H  0.13893140  0.05615443  0.40865746     0.05000
H708        H  0.19170657  0.08511377  0.40609703     0.08200
H709        H  0.16361474  0.07691546  0.46000253     0.08200
H710        H  0.27852134  0.87806574  0.41983547     0.08200
H711        H  0.24395093  0.86573123  0.46910401     0.08200
H712        H  0.29600921  0.89571070  0.47512265     0.04900
C713        C  0.41498997  0.27325880  0.13616614    -0.20900
C714        C  0.46041389  0.27126604  0.14982333    -0.07400
C715        C  0.47041460  0.27646530  0.19655121     0.13400
C716        C  0.43488180  0.28291460  0.22766709    -0.20900
C717        C  0.38981792  0.28524005  0.21359139    -0.07400
C718        C  0.37975184  0.28029491  0.16725668     0.13400
C719        C  0.33176867  0.28063345  0.15051604    -0.24300
H720        H  0.40675959  0.26940042  0.10070736     0.14700
H721        H  0.44228425  0.28636445  0.26338104     0.14700
C722        C  0.51792341  0.27423817  0.21455212    -0.24200
H723        H  0.32993564  0.27384593  0.11361169     0.05000
H724        H  0.31615292  0.31406382  0.15683973     0.08200
H725        H  0.31198059  0.25427735  0.16817113     0.08200
H726        H  0.53800419  0.30279180  0.20129615     0.08200
H727        H  0.53392172  0.24179017  0.20469828     0.08200
H728        H  0.51868829  0.27659564  0.25203605     0.04900
C729        C  0.62899196  0.32568839  0.09969042    -0.20900
C730        C  0.61767761  0.28017727  0.09507925    -0.07400
C731        C  0.65160369  0.24702137  0.09774101     0.13400
C732        C  0.69648358  0.26027199  0.10353118    -0.20900
C733        C  0.70864024  0.30600066  0.10586864    -0.07400
C734        C  0.67415248  0.33922377  0.10453422     0.13400
C735        C  0.68439657  0.38885273  0.10627413    -0.24300
H736        H  0.60243230  0.35080407  0.09797510     0.14700
H737        H  0.72243332  0.23453195  0.10516743     0.14700
C738        C  0.64050750  0.19760459  0.09486275    -0.24200
H739        H  0.65329745  0.40963636  0.10362937     0.05000
H740        H  0.70693148  0.39808344  0.07768883     0.08200
H741        H  0.70075831  0.39736984  0.13887776     0.08200
H742        H  0.62557649  0.18971179  0.06143120     0.08200
H743        H  0.61609855  0.18870981  0.12196279     0.08200
H744        H  0.67100927  0.17619283  0.09896551     0.04900
C745        C  0.47871735  0.21837790  0.91959300    -0.20900
C746        C  0.45960483  0.17526173  0.92206459    -0.07400
C747        C  0.46419353  0.15006897  0.96239095     0.13400
C748        C  0.48442273  0.17006217  0.00022467    -0.20900
C749        C  0.50045414  0.21428039  0.99867424    -0.07400
C750        C  0.49889065  0.23833232  0.95761926     0.13400
C751        C  0.51585808  0.28596477  0.95470716    -0.24300
H752        H  0.47501334  0.23775699  0.88883394     0.14700
H753        H  0.48643360  0.15162043  0.03172283     0.14700
C754        C  0.44775223  0.10217777  0.96592413    -0.24200
H755        H  0.51096569  0.30028615  0.92042782     0.05000
H756        H  0.55246430  0.28681460  0.96244298     0.08200
H757        H  0.49735548  0.30755913  0.97933065     0.08200
H758        H  0.46247534  0.08165283  0.93804554     0.08200
H759        H  0.41040771  0.10089006  0.96429351     0.08200
H760        H  0.45784815  0.08656839  0.99843032     0.04900
loop_ 
_geom_bond_atom_site_label_1 
_geom_bond_atom_site_label_2 
_geom_bond_distance 
_geom_bond_site_symmetry_2 
_ccdc_geom_bond_type 
C1            N2   1.358       .  A
C1            N6   1.357       .  A
C1          C730   1.470       .  S
N2            C3   1.356       .  A
C3            N4   1.358       .  A
C3          C749   1.474   1_554  S
N4            C5   1.361       .  A
C5            N6   1.358       .  A
C5          C714   1.494       .  S
C7            N8   1.358       .  A
C7           N12   1.362       .  A
C7          C685   1.475       .  S
N8            C9   1.359       .  A
C9           N10   1.357       .  A
C9          C666   1.483       .  S
N10          C11   1.357       .  A
C11          N12   1.359       .  A
C11         C701   1.482       .  S
C13          N14   1.363       .  A
C13          N18   1.359       .  A
C13         C634   1.480       .  S
N14          C15   1.361       .  A
C15          N16   1.361       .  A
C15         C650   1.484       .  S
N16          C17   1.359       .  A
C17          N18   1.358       .  A
C17         C618   1.486       .  S
C19          N20   1.358       .  A
C19          N24   1.360       .  A
C19         C717   1.480       .  S
N20          C21   1.358       .  A
C21          N22   1.358       .  A
C21         C669   1.481       .  S
N22          C23   1.358       .  A
C23          N24   1.361       .  A
C23         C621   1.490       .  S
O25          C40   1.259       .  A
O25         Al33   1.882       .  S
C26         C522   1.470       .  S
C26          O36   1.255       .  A
C26          O27   1.267       .  A
O27         Al29   1.952       .  S
O28          C30   1.259       .  A
O28         Al29   1.863       .  S
Al29         O37   1.860       .  S
Al29         O39   1.941       .  S
Al29         O38   1.767       .  S
C30         C538   1.487       .  S
C30          O43   1.271       .  A
O31          C41   1.254       .  A
O31         Al33   1.865       .  S
O32          C45   1.255       .  A
O32         Al42   1.865       .  S
Al33         O46   1.954       .  S
Al33         O43   1.954       .  S
Al33         O38   1.771       .  S
O34          C41   1.271       .  A
O34         Al42   1.954       .  S
O35          C44   1.274       .  A
O35         Al42   1.968       .  S
O36         Al42   1.873       .  S
O37          C44   1.255       .  A
O38         Al42   1.769       .  S
O39          C40   1.267       .  A
C40         C605   1.488       .  S
C41         C554   1.486       .  S
C44         C586   1.490       .  S
C45         C570   1.478       .  S
C45          O46   1.270       .  A
C47          N48   1.359   1_554  A
C47          N52   1.362       .  A
C47         C490   1.475       .  S
N48          C49   1.358       .  A
C49          N50   1.357       .  A
C49         C474   1.475       .  S
N50          C51   1.357       .  A
C51          N52   1.359   1_556  A
C51         C509   1.476       .  S
C53          N54   1.360       .  A
C53          N58   1.361       .  A
C53         C458   1.482       .  S
N54          C55   1.356       .  A
C55          N56   1.356       .  A
C55         C602   1.477       .  S
N56          C57   1.357       .  A
C57          N58   1.362       .  A
C57         C445   1.480       .  S
C59          N60   1.363       .  A
C59          N64   1.359       .  A
C59         C525   1.477       .  S
N60          C61   1.361       .  A
C61          N62   1.359   1_655  A
C61         C426   1.483   1_655  S
N62          C63   1.359       .  A
C63          N64   1.357   1_455  A
C63         C410   1.485       .  S
C65          N66   1.361       .  A
C65          N70   1.358       .  A
C65         C477   1.486       .  S
N66          C67   1.361       .  A
C67          N68   1.359       .  A
C67         C413   1.489       .  S
N68          C69   1.358       .  A
C69          N70   1.357       .  A
C69         C442   1.486       .  S
O71          C86   1.257       .  A
O71         Al79   1.869       .  S
C72         C682   1.487       .  S
C72          O82   1.257       .  A
C72          O73   1.270       .  A
O73         Al75   1.953       .  S
O74          C76   1.256       .  A
O74         Al75   1.868       .  S
Al75         O83   1.867       .  S
Al75         O85   1.954       .  S
Al75         O84   1.769       .  S
C76         C461   1.496       .  S
C76          O89   1.269       .  A
O77          C87   1.259       .  A
O77         Al79   1.861       .  S
O78          C91   1.258       .  A
O78         Al88   1.881       .  S
Al79         O92   1.951       .  S
Al79         O89   1.958       .  S
Al79         O84   1.771       .  S
O80          C87   1.271       .  A
O80         Al88   1.961       .  S
O81          C90   1.271       .  A
O81         Al88   1.959       .  S
O82         Al88   1.865       .  S
O83          C90   1.254       .  A
O84         Al88   1.772       .  S
O85          C86   1.271       .  A
C86         C746   1.479       .  S
C87         C381   1.487       .  S
C90         C394   1.490       .  S
C91         C506   1.484       .  S
C91          O92   1.269       .  A
C93          N94   1.360       .  A
C93          N98   1.357       .  A
C93         C378   1.470       .  S
N94          C95   1.357       .  A
C95          N96   1.360   1_455  A
C95         C362   1.485       .  S
N96          C97   1.359       .  A
C97          N98   1.358   1_655  A
C97         C346   1.481       .  S
C99         N100   1.361       .  A
C99         N104   1.358       .  A
C99         C330   1.473       .  S
N100        C101   1.359       .  A
C101        N102   1.360       .  A
C101        C589   1.483       .  S
N102        C103   1.357       .  A
C103        N104   1.358       .  A
C103        C314   1.487       .  S
C105        N106   1.361       .  A
C105        N110   1.358       .  A
C105        C557   1.473       .  S
N106        C107   1.359       .  A
C107        N108   1.359   1_565  A
C107        C397   1.483       .  S
N108        C109   1.358   1_545  A
C109        N110   1.357       .  A
C109        C298   1.481   1_565  S
C111        N112   1.360       .  A
C111        N116   1.362       .  A
C111        C349   1.488       .  S
N112        C113   1.359       .  A
C113        N114   1.356       .  A
C113        C301   1.489       .  S
N114        C115   1.357       .  A
C115        N116   1.360       .  A
C115        C317   1.485       .  S
O117        C132   1.255       .  A
O117       Al125   1.869       .  S
C118        C333   1.468       .  S
C118        O128   1.257       .  A
C118        O119   1.269       .  A
O119       Al121   1.949       .  S
O120        C122   1.259       .  A
O120       Al121   1.880       .  S
Al121       O129   1.879       .  S
Al121       O131   1.949       .  S
Al121       O130   1.771       .  S
C122        C269   1.490       .  S
C122        O135   1.268       .  A
O123        C133   1.258       .  A
O123       Al125   1.872       .  S
O124        C137   1.257       .  A
O124       Al134   1.873       .  S
Al125       O138   1.946       .  S
Al125       O135   1.945       .  S
Al125       O130   1.770       .  S
O126        C133   1.267       .  A
O126       Al134   1.943       .  S
O127        C136   1.269       .  A
O127       Al134   1.951       .  S
O128       Al134   1.874       .  S
O129        C136   1.257       .  A
O130       Al134   1.772       .  S
O131        C132   1.270       .  A
C132        C365   1.485   1_554  S
C133        C733   1.486       .  S
C136        C653   1.485       .  S
C137        C285   1.480       .  S
C137        O138   1.269       .  A
C139        N140   1.359       .  A
C139        N144   1.361       .  A
C139        C266   1.476       .  S
N140        C141   1.360   1_545  A
C141        N142   1.358       .  A
C141        C237   1.481       .  S
N142        C143   1.359       .  A
C143        N144   1.358   1_565  A
C143        C250   1.480       .  S
C145        N146   1.358       .  A
C145        N150   1.361       .  A
C145        C218   1.480       .  S
N146        C147   1.353       .  A
C147        N148   1.356       .  A
C147        C573   1.473       .  S
N148        C149   1.359       .  A
C149        N150   1.363       .  A
C149        C205   1.488       .  S
C151        N152   1.359       .  A
C151        N156   1.357       .  A
C151        C541   1.471       .  S
N152        C153   1.356       .  A
C153        N154   1.358       .  A
C153        C282   1.474       .  S
N154        C155   1.358       .  A
C155        N156   1.359       .  A
C155        C186   1.480   1_556  S
C157        N158   1.358       .  A
C157        N162   1.360       .  A
C157        C189   1.485       .  S
N158        C159   1.356       .  A
C159        N160   1.359       .  A
C159        C202   1.484       .  S
N160        C161   1.359       .  A
C161        N162   1.361       .  A
C161        C234   1.497       .  S
O163        C178   1.257       .  A
O163       Al171   1.872       .  S
C164        C221   1.495       .  S
C164        O174   1.260       .  A
C164        O165   1.270       .  A
O165       Al167   1.952       .  S
O166        C168   1.257       .  A
O166       Al167   1.874       .  S
Al167       O175   1.882       .  S
Al167       O177   1.956       .  S
Al167       O176   1.772       .  S
C168        C493   1.491       .  S
C168        O181   1.267       .  A
O169        C179   1.257       .  A
O169       Al171   1.880       .  S
O170        C183   1.259       .  A
O170       Al180   1.882       .  S
Al171       O184   1.953       .  S
Al171       O181   1.946       .  S
Al171       O176   1.771       .  S
O172        C179   1.268       .  A
O172       Al180   1.953       .  S
O173        C182   1.267       .  A
O173       Al180   1.948       .  S
O174       Al180   1.871       .  S
O175        C182   1.259       .  A
O176       Al180   1.773       .  S
O177        C178   1.271       .  A
C178        C253   1.486       .  S
C179        C637   1.472       .  S
C182        C698   1.490       .  S
C183        C429   1.485       .  S
C183        O184   1.271       .  A
C185        C186   1.403   1_556  A
C185        C190   1.405   1_556  A
C185        H192   1.084       .  S
C186        C187   1.414       .  A
C187        C188   1.404       .  A
C187        C194   1.508       .  S
C188        C189   1.406       .  A
C188        H193   1.084       .  S
C189        C190   1.416       .  A
C190        C191   1.507       .  S
C191        H195   1.111   1_554  S
C191        H196   1.109       .  S
C191        H197   1.110       .  S
C194        H198   1.109       .  S
C194        H199   1.110       .  S
C194        H200   1.111       .  S
C201        C202   1.402       .  A
C201        C206   1.404       .  A
C201        H208   1.084       .  S
C202        C203   1.416       .  A
C203        C204   1.406       .  A
C203        C210   1.508       .  S
C204        C205   1.405       .  A
C204        H209   1.084       .  S
C205        C206   1.418       .  A
C206        C207   1.509       .  S
C207        H211   1.111       .  S
C207        H212   1.109       .  S
C207        H213   1.110       .  S
C210        H214   1.109       .  S
C210        H215   1.110       .  S
C210        H216   1.111       .  S
C217        C218   1.404       .  A
C217        C222   1.410       .  A
C217        H224   1.084       .  S
C218        C219   1.412       .  A
C219        C220   1.399       .  A
C219        C226   1.510       .  S
C220        C221   1.409       .  A
C220        H225   1.083       .  S
C221        C222   1.420       .  A
C222        C223   1.507       .  S
C223        H227   1.111       .  S
C223        H228   1.110       .  S
C223        H229   1.110       .  S
C226        H230   1.109       .  S
C226        H231   1.110       .  S
C226        H232   1.111       .  S
C233        C234   1.409       .  A
C233        C238   1.406       .  A
C233        H240   1.084       .  S
C234        C235   1.423       .  A
C235        C236   1.407       .  A
C235        C242   1.508       .  S
C236        C237   1.401       .  A
C236        H241   1.084       .  S
C237        C238   1.412       .  A
C238        C239   1.508       .  S
C239        H243   1.111       .  S
C239        H244   1.109       .  S
C239        H245   1.110       .  S
C242        H246   1.110       .  S
C242        H247   1.110       .  S
C242        H248   1.111       .  S
C249        C250   1.400       .  A
C249        C254   1.403   1_655  A
C249        H256   1.085       .  S
C250        C251   1.413   1_655  A
C251        C252   1.409       .  A
C251        C258   1.506       .  S
C252        C253   1.407       .  A
C252        H257   1.084       .  S
C253        C254   1.419       .  A
C254        C255   1.510   1_455  S
C255        H259   1.111       .  S
C255        H260   1.111   1_655  S
C255        H261   1.109       .  S
C258        H262   1.110   1_565  S
C258        H263   1.110       .  S
C258        H264   1.111       .  S
C265        C266   1.402       .  A
C265        C270   1.409       .  A
C265        H272   1.084       .  S
C266        C267   1.409       .  A
C267        C268   1.401       .  A
C267        C274   1.508       .  S
C268        C269   1.408       .  A
C268        H273   1.084       .  S
C269        C270   1.420       .  A
C270        C271   1.507       .  S
C271        H275   1.111       .  S
C271        H276   1.111       .  S
C271        H277   1.110       .  S
C274        H278   1.109       .  S
C274        H279   1.111       .  S
C274        H280   1.111       .  S
C281        C282   1.400       .  A
C281        C286   1.402   1_556  A
C281        H288   1.084       .  S
C282        C283   1.412       .  A
C283        C284   1.405       .  A
C283        C290   1.506       .  S
C284        C285   1.405   1_556  A
C284        H289   1.084       .  S
C285        C286   1.417       .  A
C286        C287   1.510       .  S
C287        H291   1.111       .  S
C287        H292   1.111       .  S
C287        H293   1.109       .  S
C290        H294   1.110       .  S
C290        H295   1.110       .  S
C290        H296   1.111       .  S
C297        C298   1.401       .  A
C297        C302   1.404       .  A
C297        H304   1.084       .  S
C298        C299   1.414       .  A
C299        C300   1.406       .  A
C299        C306   1.507   1_545  S
C300        C301   1.407       .  A
C300        H305   1.084       .  S
C301        C302   1.420       .  A
C302        C303   1.509       .  S
C303        H307   1.111       .  S
C303        H308   1.110       .  S
C303        H309   1.110       .  S
C306        H310   1.109       .  S
C306        H311   1.110       .  S
C306        H312   1.111       .  S
C313        C314   1.404       .  A
C313        C318   1.404       .  A
C313        H320   1.085       .  S
C314        C315   1.417       .  A
C315        C316   1.406       .  A
C315        C322   1.508       .  S
C316        C317   1.405       .  A
C316        H321   1.084       .  S
C317        C318   1.418       .  A
C318        C319   1.509       .  S
C319        H323   1.111       .  S
C319        H324   1.110       .  S
C319        H325   1.106       .  S
C322        H326   1.109       .  S
C322        H327   1.110       .  S
C322        H328   1.111       .  S
C329        C330   1.403       .  A
C329        C334   1.405       .  A
C329        H336   1.084       .  S
C330        C331   1.412       .  A
C331        C332   1.403       .  A
C331        C338   1.506       .  S
C332        C333   1.401       .  A
C332        H337   1.084       .  S
C333        C334   1.411       .  A
C334        C335   1.507       .  S
C335        H339   1.111       .  S
C335        H340   1.111       .  S
C335        H341   1.110       .  S
C338        H342   1.110       .  S
C338        H343   1.108       .  S
C338        H344   1.111       .  S
C345        C346   1.402       .  A
C345        C350   1.405       .  A
C345        H352   1.084       .  S
C346        C347   1.417       .  A
C347        C348   1.405       .  A
C347        C354   1.509   1_655  S
C348        C349   1.405       .  A
C348        H353   1.085       .  S
C349        C350   1.418       .  A
C350        C351   1.508       .  S
C351        H355   1.111       .  S
C351        H356   1.109       .  S
C351        H357   1.110       .  S
C354        H358   1.110       .  S
C354        H359   1.105       .  S
C354        H360   1.111       .  S
C361        C362   1.402   1_655  A
C361        C366   1.403       .  A
C361        H368   1.084       .  S
C362        C363   1.416       .  A
C363        C364   1.407   1_456  A
C363        C370   1.506       .  S
C364        C365   1.405   1_554  A
C364        H369   1.084       .  S
C365        C366   1.419       .  A
C366        C367   1.511       .  S
C367        H371   1.111       .  S
C367        H372   1.111       .  S
C367        H373   1.108       .  S
C370        H374   1.110       .  S
C370        H375   1.110       .  S
C370        H376   1.111   1_556  S
C377        C378   1.404       .  A
C377        C382   1.411       .  A
C377        H384   1.084       .  S
C378        C379   1.407       .  A
C379        C380   1.396       .  A
C379        C386   1.509       .  S
C380        C381   1.407       .  A
C380        H385   1.084       .  S
C381        C382   1.419       .  A
C382        C383   1.506       .  S
C383        H387   1.111       .  S
C383        H388   1.109       .  S
C383        H389   1.110       .  S
C386        H390   1.110       .  S
C386        H391   1.111       .  S
C386        H392   1.111       .  S
C393        C394   1.407   1_565  A
C393        C398   1.410       .  A
C393        H400   1.084       .  S
C394        C395   1.422       .  A
C395        C396   1.402       .  A
C395        C402   1.511       .  S
C396        C397   1.400   1_545  A
C396        H401   1.085       .  S
C397        C398   1.414       .  A
C398        C399   1.506       .  S
C399        H403   1.111       .  S
C399        H404   1.110       .  S
C399        H405   1.110       .  S
C402        H406   1.111       .  S
C402        H407   1.109       .  S
C402        H408   1.111       .  S
C409        C410   1.403       .  A
C409        C414   1.405       .  A
C409        H416   1.084       .  S
C410        C411   1.416       .  A
C411        C412   1.408       .  A
C411        C418   1.507   1_455  S
C412        C413   1.406       .  A
C412        H417   1.084       .  S
C413        C414   1.418       .  A
C414        C415   1.508       .  S
C415        H419   1.111       .  S
C415        H420   1.109       .  S
C415        H421   1.110       .  S
C418        H422   1.109       .  S
C418        H423   1.110       .  S
C418        H424   1.111       .  S
C425        C426   1.403       .  A
C425        C430   1.406       .  A
C425        H432   1.084       .  S
C426        C427   1.413       .  A
C427        C428   1.407       .  A
C427        C434   1.504   1_455  S
C428        C429   1.405       .  A
C428        H433   1.083       .  S
C429        C430   1.417       .  A
C430        C431   1.509       .  S
C431        H435   1.111       .  S
C431        H436   1.111       .  S
C431        H437   1.108       .  S
C434        H438   1.108       .  S
C434        H439   1.110   1_655  S
C434        H440   1.111       .  S
C441        C442   1.406       .  A
C441        C446   1.404       .  A
C441        H448   1.084       .  S
C442        C443   1.418       .  A
C443        C444   1.406       .  A
C443        C450   1.507       .  S
C444        C445   1.402       .  A
C444        H449   1.084       .  S
C445        C446   1.415       .  A
C446        C447   1.509       .  S
C447        H451   1.111       .  S
C447        H452   1.109       .  S
C447        H453   1.110       .  S
C450        H454   1.109       .  S
C450        H455   1.110       .  S
C450        H456   1.111       .  S
C457        C458   1.405       .  A
C457        C462   1.412       .  A
C457        H464   1.084       .  S
C458        C459   1.411       .  A
C459        C460   1.399       .  A
C459        C466   1.510       .  S
C460        C461   1.410       .  A
C460        H465   1.084       .  S
C461        C462   1.420       .  A
C462        C463   1.506       .  S
C463        H467   1.111       .  S
C463        H468   1.111       .  S
C463        H469   1.110       .  S
C466        H470   1.109       .  S
C466        H471   1.110       .  S
C466        H472   1.111       .  S
C473        C474   1.401       .  A
C473        C478   1.406       .  A
C473        H480   1.084       .  S
C474        C475   1.411       .  A
C475        C476   1.403       .  A
C475        C482   1.508       .  S
C476        C477   1.407       .  A
C476        H481   1.084       .  S
C477        C478   1.417       .  A
C478        C479   1.507       .  S
C479        H483   1.111       .  S
C479        H484   1.110       .  S
C479        H485   1.109       .  S
C482        H486   1.111       .  S
C482        H487   1.109       .  S
C482        H488   1.111       .  S
C489        C490   1.402       .  A
C489        C494   1.409       .  A
C489        H496   1.084       .  S
C490        C491   1.409       .  A
C491        C492   1.401       .  A
C491        C498   1.508       .  S
C492        C493   1.409       .  A
C492        H497   1.084       .  S
C493        C494   1.420       .  A
C494        C495   1.507       .  S
C495        H499   1.111       .  S
C495        H500   1.111       .  S
C495        H501   1.110       .  S
C498        H502   1.110       .  S
C498        H503   1.111       .  S
C498        H504   1.111       .  S
C505        C506   1.407       .  A
C505        C510   1.407   1_545  A
C505        H512   1.084       .  S
C506        C507   1.417   1_545  A
C507        C508   1.404       .  A
C507        C514   1.508       .  S
C508        C509   1.400       .  A
C508        H513   1.084       .  S
C509        C510   1.412       .  A
C510        C511   1.506       .  S
C511        H515   1.111   1_565  S
C511        H516   1.110   1_556  S
C511        H517   1.111       .  S
C514        H518   1.111       .  S
C514        H519   1.109       .  S
C514        H520   1.111       .  S
C521        C522   1.402       .  A
C521        C526   1.406       .  A
C521        H528   1.085       .  S
C522        C523   1.411       .  A
C523        C524   1.403       .  A
C523        C530   1.508       .  S
C524        C525   1.403       .  A
C524        H529   1.084       .  S
C525        C526   1.414       .  A
C526        C527   1.505       .  S
C527        H531   1.111       .  S
C527        H532   1.110       .  S
C527        H533   1.106       .  S
C530        H534   1.110       .  S
C530        H535   1.110       .  S
C530        H536   1.111       .  S
C537        C538   1.408       .  A
C537        C542   1.397       .  A
C537        H544   1.084       .  S
C538        C539   1.419       .  A
C539        C540   1.408       .  A
C539        C546   1.507       .  S
C540        C541   1.403       .  A
C540        H545   1.084       .  S
C541        C542   1.408       .  A
C542        C543   1.509       .  S
C543        H547   1.111       .  S
C543        H548   1.109       .  S
C543        H549   1.110       .  S
C546        H550   1.110       .  S
C546        H551   1.110       .  S
C546        H552   1.111       .  S
C553        C554   1.405       .  A
C553        C558   1.405       .  A
C553        H560   1.084       .  S
C554        C555   1.424       .  A
C555        C556   1.403       .  A
C555        C562   1.511       .  S
C556        C557   1.398       .  A
C556        H561   1.085       .  S
C557        C558   1.410       .  A
C558        C559   1.506       .  S
C559        H563   1.111       .  S
C559        H564   1.110       .  S
C559        H565   1.111       .  S
C562        H566   1.111       .  S
C562        H567   1.109       .  S
C562        H568   1.111       .  S
C569        C570   1.404       .  A
C569        C574   1.406       .  A
C569        H576   1.084       .  S
C570        C571   1.417       .  A
C571        C572   1.403       .  A
C571        C578   1.510       .  S
C572        C573   1.399       .  A
C572        H577   1.084       .  S
C573        C574   1.412       .  A
C574        C575   1.506       .  S
C575        H579   1.111       .  S
C575        H580   1.110       .  S
C575        H581   1.111       .  S
C578        H582   1.111       .  S
C578        H583   1.109       .  S
C578        H584   1.111       .  S
C585        C586   1.407       .  A
C585        C590   1.410       .  A
C585        H592   1.084       .  S
C586        C587   1.423       .  A
C587        C588   1.400       .  A
C587        C594   1.512       .  S
C588        C589   1.399       .  A
C588        H593   1.085       .  S
C589        C590   1.415       .  A
C590        C591   1.504       .  S
C591        H595   1.111       .  S
C591        H596   1.110       .  S
C591        H597   1.110       .  S
C594        H598   1.110       .  S
C594        H599   1.109       .  S
C594        H600   1.111       .  S
C601        C602   1.402       .  A
C601        C606   1.407       .  A
C601        H608   1.084       .  S
C602        C603   1.413       .  A
C603        C604   1.401       .  A
C603        C610   1.508       .  S
C604        C605   1.407       .  A
C604        H609   1.085       .  S
C605        C606   1.419       .  A
C606        C607   1.508       .  S
C607        H611   1.111       .  S
C607        H612   1.110       .  S
C607        H613   1.110       .  S
C610        H614   1.110       .  S
C610        H615   1.108       .  S
C610        H616   1.111       .  S
C617        C618   1.403       .  A
C617        C622   1.407       .  A
C617        H624   1.084       .  S
C618        C619   1.415       .  A
C619        C620   1.407       .  A
C619        C626   1.507       .  S
C620        C621   1.405       .  A
C620        H625   1.084       .  S
C621        C622   1.419       .  A
C622        C623   1.508       .  S
C623        H627   1.111       .  S
C623        H628   1.109       .  S
C623        H629   1.110       .  S
C626        H630   1.109       .  S
C626        H631   1.110       .  S
C626        H632   1.111       .  S
C633        C634   1.405       .  A
C633        C638   1.406       .  A
C633        H640   1.084       .  S
C634        C635   1.414       .  A
C635        C636   1.406       .  A
C635        C642   1.505       .  S
C636        C637   1.401       .  A
C636        H641   1.084       .  S
C637        C638   1.410       .  A
C638        C639   1.507       .  S
C639        H643   1.111       .  S
C639        H644   1.111       .  S
C639        H645   1.110       .  S
C642        H646   1.110       .  S
C642        H647   1.105       .  S
C642        H648   1.111       .  S
C649        C650   1.403       .  A
C649        C654   1.405       .  A
C649        H656   1.084       .  S
C650        C651   1.414   1_455  A
C651        C652   1.408       .  A
C651        C658   1.503       .  S
C652        C653   1.405       .  A
C652        H657   1.084       .  S
C653        C654   1.417   1_655  A
C654        C655   1.509       .  S
C655        H659   1.111       .  S
C655        H660   1.111   1_455  S
C655        H661   1.108       .  S
C658        H662   1.108       .  S
C658        H663   1.110   1_655  S
C658        H664   1.111       .  S
C665        C666   1.405       .  A
C665        C670   1.405       .  A
C665        H672   1.084       .  S
C666        C667   1.417       .  A
C667        C668   1.404       .  A
C667        C674   1.509       .  S
C668        C669   1.403       .  A
C668        H673   1.084       .  S
C669        C670   1.415       .  A
C670        C671   1.507       .  S
C671        H675   1.111       .  S
C671        H676   1.109       .  S
C671        H677   1.110       .  S
C674        H678   1.109       .  S
C674        H679   1.110       .  S
C674        H680   1.111       .  S
C681        C682   1.408       .  A
C681        C686   1.400       .  A
C681        H688   1.084       .  S
C682        C683   1.417       .  A
C683        C684   1.410       .  A
C683        C690   1.506       .  S
C684        C685   1.404       .  A
C684        H689   1.084       .  S
C685        C686   1.408       .  A
C686        C687   1.508       .  S
C687        H691   1.111       .  S
C687        H692   1.109       .  S
C687        H693   1.111       .  S
C690        H694   1.111       .  S
C690        H695   1.110       .  S
C690        H696   1.111       .  S
C697        C698   1.406       .  A
C697        C702   1.403   1_565  A
C697        H704   1.084       .  S
C698        C699   1.419       .  A
C699        C700   1.410       .  A
C699        C706   1.507       .  S
C700        C701   1.404   1_565  A
C700        H705   1.084       .  S
C701        C702   1.413       .  A
C702        C703   1.508       .  S
C703        H707   1.111       .  S
C703        H708   1.109       .  S
C703        H709   1.110       .  S
C706        H710   1.111       .  S
C706        H711   1.110       .  S
C706        H712   1.111       .  S
C713        C714   1.408       .  A
C713        C718   1.403       .  A
C713        H720   1.083       .  S
C714        C715   1.423       .  A
C715        C716   1.407       .  A
C715        C722   1.509       .  S
C716        C717   1.402       .  A
C716        H721   1.084       .  S
C717        C718   1.411       .  A
C718        C719   1.508       .  S
C719        H723   1.111       .  S
C719        H724   1.109       .  S
C719        H725   1.110       .  S
C722        H726   1.110       .  S
C722        H727   1.110       .  S
C722        H728   1.111       .  S
C729        C730   1.401       .  A
C729        C734   1.406       .  A
C729        H736   1.084       .  S
C730        C731   1.408       .  A
C731        C732   1.399       .  A
C731        C738   1.508       .  S
C732        C733   1.408       .  A
C732        H737   1.084       .  S
C733        C734   1.419       .  A
C734        C735   1.507       .  S
C735        H739   1.111       .  S
C735        H740   1.111       .  S
C735        H741   1.110       .  S
C738        H742   1.110       .  S
C738        H743   1.110       .  S
C738        H744   1.111       .  S
C745        C746   1.405       .  A
C745        C750   1.406       .  A
C745        H752   1.084       .  S
C746        C747   1.417       .  A
C747        C748   1.403   1_556  A
C747        C754   1.510       .  S
C748        C749   1.400   1_554  A
C748        H753   1.084       .  S
C749        C750   1.412       .  A
C750        C751   1.506       .  S
C751        H755   1.111       .  S
C751        H756   1.110       .  S
C751        H757   1.110       .  S
C754        H758   1.111       .  S
C754        H759   1.109       .  S
C754        H760   1.111       .  S
