geometry optimzed in LAMMPS
_audit_creation_date              2020-11-30 
_audit_creation_method            'lammps2cif' 
_symmetry_space_group_name_H-M    'P1' 
_symmetry_Int_Tables_number       1 
_symmetry_cell_setting            triclinic 
loop_ 
_symmetry_equiv_pos_as_xyz 
  x,y,z 
_cell_length_a                    25.13390495 
_cell_length_b                    25.14554179061351 
_cell_length_c                    26.893772269462616 
_cell_angle_alpha                 91.39437737439066 
_cell_angle_beta                  90.61389362759262 
_cell_angle_gamma                 90.39485956202454 
loop_ 
_atom_site_label 
_atom_site_type_symbol 
_atom_site_fract_x 
_atom_site_fract_y 
_atom_site_fract_z 
_atom_site_charge 
C1          C  0.33346391  0.70586316  0.01673344     0.86700
C2          C  0.31424654  0.65519880  0.98898173    -0.53600
C3          C  0.26149800  0.65464510  0.97550646     0.09600
C4          C  0.23419651  0.70818343  0.98725488     0.20500
C5          C  0.32184326  0.74984553  0.97963912    -0.54300
C6          C  0.26993868  0.75114748  0.96452140     0.09700
C7          C  0.29318598  0.71633487  0.05855184    -0.53800
C8          C  0.24147842  0.71600600  0.04338002     0.10300
H9          H  0.34062425  0.62232279  0.98059335     0.14800
H10         H  0.19212729  0.71118734  0.97629485     0.00500
H11         H  0.35063539  0.77793454  0.96586362     0.15100
H12         H  0.30513680  0.72425234  0.09692796     0.14900
C13         C  0.26202940  0.87269302  0.47248061     0.86700
C14         C  0.21626300  0.86311390  0.50877190    -0.53600
C15         C  0.20617691  0.81044456  0.51556992     0.09600
C16         C  0.24088976  0.77221948  0.48486648     0.20500
C17         C  0.30808528  0.84118083  0.49513919    -0.54300
C18         C  0.29773824  0.78815852  0.49993368     0.09700
C19         C  0.24517844  0.84191495  0.42471669    -0.53800
C20         C  0.23470324  0.78958814  0.43104562     0.10300
H21         H  0.19639949  0.89358397  0.53066077     0.14800
H22         H  0.23238660  0.72943550  0.49026303     0.00500
H23         H  0.34377046  0.86010438  0.51041883     0.15100
H24         H  0.24379614  0.85976048  0.38830878     0.14900
C25         C  0.86461955  0.26623630  0.96064944     0.86700
C26         C  0.83233351  0.31047095  0.98621540    -0.53600
C27         C  0.77960191  0.29899353  0.99154248     0.09600
C28         C  0.76445311  0.24254762  0.97390222     0.20500
C29         C  0.85572785  0.21831792  0.99435586    -0.54300
C30         C  0.80328058  0.20746072  0.00274072     0.09700
C31         C  0.83400265  0.25131271  0.91255295    -0.53800
C32         C  0.78182879  0.23931432  0.91932423     0.10300
H33         H  0.85064679  0.34574630  0.00317208     0.14800
H34         H  0.72181396  0.23262890  0.97947934     0.00500
H35         H  0.88668642  0.19790874  0.01436603     0.15100
H36         H  0.85162511  0.25252326  0.87586069     0.14900
C37         C  0.80960769  0.22328327  0.46668902     0.86700
C38         C  0.80952941  0.26032064  0.51265953    -0.53600
C39         C  0.76592050  0.25442791  0.54128551     0.09600
C40         C  0.72535194  0.21392220  0.52130308     0.20500
C41         C  0.80075696  0.16715427  0.48558808    -0.54300
C42         C  0.75649765  0.16210411  0.51398134     0.09700
C43         C  0.75649614  0.23733883  0.44017700    -0.53800
C44         C  0.71259584  0.23189981  0.46914033     0.10300
H45         H  0.83969881  0.29063760  0.52043746     0.14800
H46         H  0.69020827  0.21171466  0.54558796     0.00500
H47         H  0.82854140  0.13519463  0.47864973     0.15100
H48         H  0.75283862  0.25327614  0.40329232     0.14900
C49         C  0.99173064  0.70311539  0.21985356     0.03300
C50         C  0.03145929  0.70017634  0.18387864    -0.12800
C51         C  0.06156493  0.74474232  0.17209274     0.00800
C52         C  0.05103501  0.79348479  0.19542098    -0.11400
C53         C  0.00914094  0.79883007  0.22896615     0.03300
C54         C  0.97956489  0.75311328  0.24237276    -0.10800
H55         H  0.04111951  0.66199888  0.16665047     0.08900
H56         H  0.07542291  0.82781883  0.18712652     0.06400
H57         H  0.94831236  0.75632104  0.26964401     0.06300
C58         C  0.01327756  0.70660938  0.72779262     0.03300
C59         C  0.05106952  0.70574155  0.69002407    -0.12800
C60         C  0.06690011  0.75239288  0.66869241     0.00800
C61         C  0.04635575  0.80035620  0.68467723    -0.11400
C62         C  0.01060600  0.80452516  0.72425560     0.03300
C63         C  0.99266579  0.75636185  0.74590133    -0.10800
H64         H  0.06727406  0.66839244  0.67613229     0.08900
H65         H  0.06023036  0.83515610  0.66545767     0.06400
H66         H  0.96393816  0.75740963  0.77559175     0.06300
C67         C  0.67016636  0.46917567  0.22184021     0.03300
C68         C  0.67126704  0.43872484  0.17695308    -0.12800
C69         C  0.71836592  0.42779312  0.15269184     0.00800
C70         C  0.76608521  0.44723087  0.17218484    -0.11400
C71         C  0.76790887  0.47699673  0.21667744     0.03300
C72         C  0.71958901  0.48846438  0.24222170    -0.10800
H73         H  0.63506306  0.42351114  0.15943350     0.08900
H74         H  0.80266204  0.43801588  0.15272297     0.06400
H75         H  0.72045880  0.51173904  0.27660776     0.06300
C76         C  0.68683420  0.47717100  0.74313681     0.03300
C77         C  0.68708887  0.43382382  0.70953183    -0.12800
C78         C  0.73311738  0.41989561  0.68447261     0.00800
C79         C  0.77976767  0.44815332  0.69373557    -0.11400
C80         C  0.78238363  0.48832386  0.73008582     0.03300
C81         C  0.73527246  0.50454591  0.75477812    -0.10800
H82         H  0.65091019  0.41097262  0.70262107     0.08900
H83         H  0.81565482  0.43632233  0.67429350     0.06400
H84         H  0.73631907  0.53679279  0.78218272     0.06300
C85         C  0.51121709  0.69836106  0.23811253     0.03300
C86         C  0.50008267  0.74972283  0.25960452    -0.12800
C87         C  0.49542574  0.79412912  0.22749673     0.00800
C88         C  0.49164015  0.78379164  0.17600859    -0.11400
C89         C  0.50119332  0.73321586  0.15565773     0.03300
C90         C  0.52060294  0.69440398  0.18686699    -0.10800
H91         H  0.49485297  0.75480157  0.29931919     0.08900
H92         H  0.47818775  0.81512424  0.15204527     0.06400
H93         H  0.52977086  0.65574165  0.17029547     0.06300
C94         C  0.46229244  0.68808806  0.72973750     0.03300
C95         C  0.43782520  0.68377477  0.68289880    -0.12800
C96         C  0.42520642  0.72874598  0.65679183     0.00800
C97         C  0.43815923  0.77881726  0.67670598    -0.11400
C98         C  0.46326363  0.78468052  0.72328670     0.03300
C99         C  0.47493587  0.73882590  0.75085658    -0.10800
H100        H  0.42882533  0.64489612  0.66635375     0.08900
H101        H  0.42799662  0.81375711  0.65575653     0.06400
H102        H  0.49517273  0.74238097  0.78653740     0.06300
C103        C  0.69590956  0.02795377  0.22521697     0.03300
C104        C  0.74409412  0.00903771  0.24618248    -0.12800
C105        C  0.79321461  0.02856091  0.22846248     0.00800
C106        C  0.79335808  0.06541616  0.19065560    -0.11400
C107        C  0.74624846  0.08358845  0.16973254     0.03300
C108        C  0.69766029  0.06546405  0.18743345    -0.10800
H109        H  0.74334573  0.97989484  0.27514501     0.08900
H110        H  0.83107056  0.07935400  0.17628624     0.06400
H111        H  0.66099511  0.08058505  0.17177939     0.06300
C112        C  0.69399761  0.97033474  0.72098452     0.03300
C113        C  0.74256869  0.97641099  0.74871390    -0.12800
C114        C  0.79105959  0.98412817  0.72250894     0.00800
C115        C  0.78934326  0.98721835  0.67057992    -0.11400
C116        C  0.74131261  0.98910097  0.64534462     0.03300
C117        C  0.69528967  0.97411758  0.66894765    -0.10800
H118        H  0.74239227  0.97692292  0.78896097     0.08900
H119        H  0.82502976  0.99738163  0.65037224     0.06400
H120        H  0.65843076  0.97637205  0.64767216     0.06300
C121        C  0.01927142  0.20691830  0.27422710     0.03300
C122        C  0.01746251  0.21165683  0.32630215    -0.12800
C123        C  0.99764366  0.25732869  0.34838475     0.00800
C124        C  0.00118285  0.30448162  0.32342376    -0.11400
C125        C  0.00740173  0.30440344  0.27153749     0.03300
C126        C  0.01512945  0.25438193  0.24583341    -0.10800
H127        H  0.01748547  0.17613266  0.34849229     0.08900
H128        H  0.98870274  0.34028040  0.34316686     0.06400
H129        H  0.01340383  0.25195646  0.20562178     0.06300
C130        C  0.00541763  0.21257203  0.77880503     0.03300
C131        C  0.01924206  0.22350600  0.82889099    -0.12800
C132        C  0.03350741  0.27478988  0.84582176     0.00800
C133        C  0.04091626  0.31324634  0.81009263    -0.11400
C134        C  0.01470875  0.30753515  0.76398348     0.03300
C135        C  0.99841686  0.25607888  0.74674132    -0.10800
H136        H  0.01345875  0.19238104  0.85542663     0.08900
H137        H  0.05437547  0.35256763  0.82244582     0.06400
H138        H  0.98035415  0.25030512  0.71027105     0.06300
Zn139      Zn  0.04451591  0.04628800  0.20805810     1.49700
Zn140      Zn  0.94709449  0.95681612  0.21015350     1.49400
Zn141      Zn  0.03686400  0.95754792  0.29508862     1.49100
Zn142      Zn  0.95167379  0.04907794  0.29258689     1.49500
O143        O  0.99547771  0.00269577  0.25096819    -1.83900
O144        O  0.02696629  0.02921524  0.13434909    -0.74600
O145        O  0.96074445  0.87817873  0.22040450    -0.74400
O146        O  0.11437488  0.97943093  0.29035593    -0.73900
O147        O  0.96091191  0.97027925  0.13666376    -0.74600
O148        O  0.12387938  0.03113013  0.22494354    -0.74200
O149        O  0.02910651  0.87910594  0.27384938    -0.74800
O150        O  0.96031902  0.03594390  0.36752155    -0.74200
O151        O  0.86879213  0.97376038  0.22131794    -0.74900
O152        O  0.01737436  0.96941539  0.36847534    -0.74300
O153        O  0.87350032  0.04423929  0.27283768    -0.74800
O154        O  0.97747773  0.12350659  0.28137404    -0.74700
O155        O  0.03814427  0.12841231  0.22223765    -0.74500
C156        C  0.99272396  0.99891928  0.11185010     0.77300
C157        C  0.99690282  0.85408142  0.24441102     0.77800
C158        C  0.14361006  0.00734680  0.26230299     0.76800
C159        C  0.98846622  0.00311804  0.39178485     0.77100
C160        C  0.84670616  0.01222225  0.24471166     0.78300
C161        C  0.01014162  0.15073892  0.25600426     0.77300
Zn162      Zn  0.03665635  0.04621104  0.79815212     1.49700
Zn163      Zn  0.94629555  0.95387328  0.79189673     1.49400
Zn164      Zn  0.94688262  0.05783878  0.71383946     1.49100
Zn165      Zn  0.03634038  0.97214984  0.70547164     1.49500
O166        O  0.98996797  0.00742264  0.75262615    -1.83900
O167        O  0.01821934  0.03120077  0.86926141    -0.74600
O168        O  0.86738307  0.96205138  0.77210138    -0.74400
O169        O  0.96262008  0.13765259  0.73434732    -0.73900
O170        O  0.95700328  0.96758658  0.86800538    -0.74600
O171        O  0.02800703  0.12341035  0.78859990    -0.74200
O172        O  0.87022105  0.03459727  0.72532006    -0.74800
O173        O  0.02108233  0.98713893  0.63327342    -0.74200
O174        O  0.96562888  0.87402070  0.77436052    -0.74900
O175        O  0.95841024  0.04812800  0.63708527    -0.74300
O176        O  0.02092956  0.89674437  0.71538211    -0.74800
O177        O  0.11585127  0.98002070  0.71974483    -0.74700
O178        O  0.11399996  0.02655474  0.79070781    -0.74500
C179        C  0.98774450  0.99992980  0.89240885     0.77300
C180        C  0.84464616  0.99570039  0.74421021     0.77800
C181        C  0.99821242  0.15518181  0.76511716     0.76800
C182        C  0.98884952  0.01781393  0.61132650     0.77100
C183        C  0.99723917  0.86081889  0.73940285     0.78300
C184        C  0.13936273  0.99978730  0.75808407     0.77300
C185        C  0.19947252  0.01833372  0.27916236     0.03300
C186        C  0.20745205  0.02723525  0.33065699    -0.12800
C187        C  0.25770651  0.04110756  0.35017696     0.00800
C188        C  0.29758936  0.05397912  0.31696365    -0.11400
C189        C  0.29516350  0.03263379  0.26854446     0.03300
C190        C  0.24488938  0.01728905  0.24796636    -0.10800
H191        H  0.17524697  0.01932045  0.35593401     0.08900
H192        H  0.33599969  0.06654274  0.33219738     0.06400
H193        H  0.24161638  0.00259606  0.20988200     0.06300
C194        C  0.19147905  0.97839219  0.77268520     0.03300
C195        C  0.24236837  0.99603875  0.75636742    -0.12800
C196        C  0.28906956  0.97105409  0.77479477     0.00800
C197        C  0.28253567  0.92885243  0.80803070    -0.11400
C198        C  0.23292261  0.91201737  0.82339829     0.03300
C199        C  0.18774108  0.93674727  0.80614538    -0.10800
H200        H  0.24541253  0.02832934  0.73064190     0.08900
H201        H  0.31644346  0.90807142  0.82318127     0.06400
H202        H  0.14918238  0.92319747  0.81879392     0.06300
Zn203      Zn  0.44804550  0.95461317  0.28871458     1.49700
Zn204      Zn  0.45286036  0.05502656  0.20805237     1.49400
Zn205      Zn  0.54230883  0.03916575  0.29624614     1.49100
Zn206      Zn  0.53761079  0.95931251  0.20449168     1.49500
O207        O  0.49401304  0.00190832  0.24930897    -1.83900
O208        O  0.37119590  0.97865144  0.27383960    -0.74600
O209        O  0.46823337  0.13390247  0.22990995    -0.74400
O210        O  0.53226723  0.02127943  0.36948610    -0.73900
O211        O  0.37341540  0.04648940  0.22147313    -0.74600
O212        O  0.46112181  0.96897860  0.36513899    -0.74200
O213        O  0.52321399  0.11522047  0.29169194    -0.74800
O214        O  0.61576301  0.98022720  0.21038590    -0.74200
O215        O  0.46656546  0.04372507  0.13272858    -0.74900
O216        O  0.62025397  0.03440086  0.27685826    -0.74300
O217        O  0.51744529  0.97173412  0.13208260    -0.74800
O218        O  0.52655608  0.88137702  0.21721708    -0.74700
O219        O  0.46092764  0.87289326  0.27148041    -0.74500
C220        C  0.34799943  0.01587055  0.25010303     0.77300
C221        C  0.49657990  0.14898865  0.26734992     0.77800
C222        C  0.49609765  0.99491314  0.39107095     0.76800
C223        C  0.64220573  0.01090715  0.24004609     0.77100
C224        C  0.49182049  0.00732336  0.10896413     0.78300
C225        C  0.49510818  0.85210800  0.24182330     0.77300
Zn226      Zn  0.52711062  0.94232800  0.70282941     1.49700
Zn227      Zn  0.45574731  0.94057102  0.79515025     1.49400
Zn228      Zn  0.54552386  0.02525551  0.79194839     1.49100
Zn229      Zn  0.44092988  0.03769592  0.71275807     1.49500
O230        O  0.49158797  0.98823943  0.75032328    -1.83900
O231        O  0.50130921  0.86749853  0.70612377    -0.74600
O232        O  0.47084327  0.95675411  0.86810996    -0.74400
O233        O  0.62358350  0.00414482  0.77372506    -0.73900
O234        O  0.46255000  0.86045198  0.77928252    -0.74600
O235        O  0.60516039  0.94267518  0.71527483    -0.74200
O236        O  0.53252757  0.01981854  0.86762555    -0.74800
O237        O  0.46467251  0.11835025  0.72615807    -0.74200
O238        O  0.38066692  0.95680137  0.78419132    -0.74900
O239        O  0.53523867  0.10078429  0.77351308    -0.74300
O240        O  0.36029900  0.02119753  0.73278016    -0.74800
O241        O  0.44988842  0.02418971  0.63558448    -0.74700
O242        O  0.51525692  0.96532028  0.63162692    -0.74500
C243        C  0.47810017  0.83969360  0.73835991     0.77300
C244        C  0.50118467  0.98968935  0.89152995     0.77800
C245        C  0.63881334  0.97032042  0.74064572     0.76800
C246        C  0.50676313  0.13394520  0.74990380     0.77100
C247        C  0.34586093  0.98475764  0.76259241     0.78300
C248        C  0.48264669  0.99601284  0.61000359     0.77300
C249        C  0.47194491  0.29913272  0.29299396     0.03300
C250        C  0.47197780  0.24953106  0.26620760    -0.12800
C251        C  0.49818757  0.20526713  0.28708422     0.00800
C252        C  0.52768113  0.21382841  0.33113661    -0.11400
C253        C  0.52718459  0.26200338  0.35763617     0.03300
C254        C  0.49659025  0.30333554  0.34001847    -0.10800
H255        H  0.45248467  0.24572668  0.23020031     0.08900
H256        H  0.55243044  0.18247708  0.34545779     0.06400
H257        H  0.49618626  0.34077192  0.36081116     0.06300
C258        C  0.52835891  0.19001082  0.75026348     0.03300
C259        C  0.49881760  0.23847563  0.74879169    -0.12800
C260        C  0.52459148  0.28757396  0.76319544     0.00800
C261        C  0.57723273  0.28540343  0.78200984    -0.11400
C262        C  0.60694572  0.23896522  0.78022589     0.03300
C263        C  0.58347738  0.19328727  0.75984243    -0.10800
H264        H  0.45686642  0.23774698  0.73930645     0.08900
H265        H  0.59575613  0.32043668  0.79890897     0.06400
H266        H  0.60778954  0.15789716  0.75696614     0.06300
Zn267      Zn  0.92590843  0.54394530  0.19661684     1.49700
Zn268      Zn  0.92721749  0.45577365  0.28103670     1.49400
Zn269      Zn  0.02621909  0.46058676  0.20108448     1.49100
Zn270      Zn  0.00617937  0.55223933  0.28867801     1.49500
O271        O  0.97160260  0.50244818  0.24115103    -1.83900
O272        O  0.84687611  0.52758137  0.20795838    -0.74600
O273        O  0.95431022  0.38098801  0.26894860    -0.74400
O274        O  0.01136128  0.46987106  0.12571318    -0.73900
O275        O  0.84796538  0.46157885  0.26187270    -0.74600
O276        O  0.94281693  0.52524350  0.12362928    -0.74200
O277        O  0.02588762  0.38068026  0.22061511    -0.74800
O278        O  0.08423560  0.54543052  0.27767393    -0.74200
O279        O  0.93674542  0.46910400  0.35709916    -0.74900
O280        O  0.10305033  0.48933581  0.21528169    -0.74300
O281        O  0.99131271  0.53861943  0.36188849    -0.74800
O282        O  0.99252004  0.62993762  0.27310664    -0.74700
O283        O  0.94361474  0.62315637  0.20381377    -0.74500
C284        C  0.82268768  0.49214205  0.23271543     0.77300
C285        C  0.99397351  0.35680398  0.24948638     0.77800
C286        C  0.97789368  0.49735257  0.10107804     0.76800
C287        C  0.11779571  0.52377497  0.24838533     0.77100
C288        C  0.96378224  0.50310592  0.38307120     0.78300
C289        C  0.97123017  0.65082835  0.23515823     0.77300
Zn290      Zn  0.94171214  0.46172843  0.78398006     1.49700
Zn291      Zn  0.93888624  0.55246920  0.70370481     1.49400
Zn292      Zn  0.03116381  0.54791389  0.78713305     1.49100
Zn293      Zn  0.03005671  0.45873658  0.69526927     1.49500
O294        O  0.98568651  0.50530662  0.74178433    -1.83900
O295        O  0.86421756  0.47045617  0.76773847    -0.74600
O296        O  0.95905992  0.63034220  0.71713496    -0.74400
O297        O  0.01522315  0.53886054  0.86172847    -0.73900
O298        O  0.85995376  0.54072203  0.71912978    -0.74600
O299        O  0.95049954  0.47898404  0.85784047    -0.74200
O300        O  0.02774051  0.62655606  0.77013971    -0.74800
O301        O  0.11137627  0.46370564  0.71242054    -0.74200
O302        O  0.94857528  0.53553522  0.62849511    -0.74900
O303        O  0.10459195  0.51816544  0.77845371    -0.74300
O304        O  0.01111458  0.47352117  0.62168850    -0.74800
O305        O  0.01808693  0.37952847  0.70785314    -0.74700
O306        O  0.96552837  0.38564351  0.77391429    -0.74500
C307        C  0.83739626  0.50371633  0.74295927     0.77300
C308        C  0.99654745  0.65295412  0.74231622     0.77800
C309        C  0.98164539  0.50920571  0.88331974     0.76800
C310        C  0.13164489  0.48589616  0.75151855     0.77100
C311        C  0.97743205  0.50471350  0.60156695     0.78300
C312        C  0.99552932  0.35865295  0.74484805     0.77300
C313        C  0.17309241  0.54555251  0.25192218     0.03300
C314        C  0.17625095  0.59982426  0.26518053    -0.12800
C315        C  0.22337659  0.62301140  0.28278497     0.00800
C316        C  0.26988925  0.59351138  0.28089650    -0.11400
C317        C  0.27010739  0.54131564  0.26170944     0.03300
C318        C  0.22101008  0.51588466  0.24839714    -0.10800
H319        H  0.14037311  0.62356609  0.26611376     0.08900
H320        H  0.30651917  0.61082640  0.29584958     0.06400
H321        H  0.22007201  0.47441756  0.23662789     0.06300
C322        C  0.18324012  0.46848934  0.77395640     0.03300
C323        C  0.23434605  0.46941219  0.75128231    -0.12800
C324        C  0.28091446  0.46841168  0.78222393     0.00800
C325        C  0.27458906  0.47145507  0.83416340    -0.11400
C326        C  0.22444163  0.47303615  0.85566381     0.03300
C327        C  0.18042378  0.46173370  0.82558845    -0.10800
H328        H  0.23782190  0.47501119  0.71167469     0.08900
H329        H  0.30903736  0.47998541  0.85764787     0.06400
H330        H  0.14183815  0.46137005  0.84339701     0.06300
Zn331      Zn  0.50023492  0.44391378  0.21553813     1.49700
Zn332      Zn  0.52900422  0.53741844  0.30144737     1.49400
Zn333      Zn  0.43450382  0.54685138  0.21756504     1.49100
Zn334      Zn  0.41876397  0.46199017  0.30215974     1.49500
O335        O  0.47129281  0.49827424  0.26056899    -1.83900
O336        O  0.57765959  0.45450634  0.22039576    -0.74600
O337        O  0.52751485  0.61989282  0.28741579    -0.74400
O338        O  0.44965826  0.53342707  0.14315954    -0.73900
O339        O  0.60582818  0.51237409  0.27831509    -0.74600
O340        O  0.48381690  0.45289714  0.14196595    -0.74200
O341        O  0.45902280  0.62144241  0.23432739    -0.74800
O342        O  0.34102222  0.48401828  0.28689582    -0.74200
O343        O  0.51481818  0.52249856  0.37710571    -0.74900
O344        O  0.35563261  0.54346445  0.22848846    -0.74300
O345        O  0.43739846  0.47907997  0.37488653    -0.74800
O346        O  0.42813611  0.38179649  0.29730551    -0.74700
O347        O  0.48617278  0.36824554  0.23659502    -0.74500
C348        C  0.61561362  0.47934226  0.24254544     0.77300
C349        C  0.49670695  0.64528828  0.25818166     0.77800
C350        C  0.46726874  0.49321426  0.11880968     0.76800
C351        C  0.32403657  0.51875737  0.25677084     0.77100
C352        C  0.47613408  0.49990794  0.39976758     0.78300
C353        C  0.45816217  0.35098161  0.27194717     0.77300
Zn354      Zn  0.53078369  0.45409077  0.80703700     1.49700
Zn355      Zn  0.43889778  0.53711925  0.80066321     1.49400
Zn356      Zn  0.52877082  0.53443695  0.71867711     1.49100
Zn357      Zn  0.44101380  0.43692869  0.71715174     1.49500
O358        O  0.48393715  0.48980557  0.76025105    -1.83900
O359        O  0.51300937  0.46877271  0.88000788    -0.74600
O360        O  0.44402339  0.61395563  0.77930013    -0.74400
O361        O  0.60684869  0.52147739  0.72879679    -0.73900
O362        O  0.45255188  0.53239253  0.87615489    -0.74600
O363        O  0.61012068  0.46774789  0.79312737    -0.74200
O364        O  0.51405577  0.61186098  0.72935394    -0.74800
O365        O  0.45197726  0.45480676  0.64179860    -0.74200
O366        O  0.36365828  0.51216235  0.78913512    -0.74900
O367        O  0.51296991  0.51899089  0.64527470    -0.74300
O368        O  0.35974772  0.44321587  0.73539881    -0.74800
O369        O  0.46800603  0.35799438  0.72926982    -0.74700
O370        O  0.52220069  0.37631460  0.79324314    -0.74500
C371        C  0.48162398  0.50142385  0.90155330     0.77300
C372        C  0.47651427  0.63688473  0.75062315     0.77800
C373        C  0.63308183  0.49305236  0.75869542     0.76800
C374        C  0.48253181  0.48779986  0.61977811     0.77100
C375        C  0.33704519  0.47591767  0.76565785     0.78300
C376        C  0.50132154  0.34272497  0.76242980     0.77300
C377        C  0.52119247  0.51564290  0.48341584    -0.20100
C378        C  0.47651621  0.49654402  0.45624395    -0.06700
C379        C  0.43421822  0.47358759  0.48389986     0.14200
C380        C  0.43791315  0.47111328  0.53637310    -0.20200
C381        C  0.48225093  0.49081542  0.56344843    -0.06700
C382        C  0.52473404  0.51325309  0.53591877     0.14200
C383        C  0.57489114  0.53408464  0.56100872    -0.23500
H384        H  0.55408990  0.53268743  0.46338292     0.15500
H385        H  0.40521327  0.45394672  0.55660902     0.15500
C386        C  0.38439124  0.45134604  0.45920343    -0.23500
H387        H  0.60509836  0.54651337  0.53368684     0.05700
H388        H  0.59288581  0.50262997  0.58384643     0.08900
H389        H  0.56581520  0.56946226  0.58480049     0.08900
H390        H  0.39454538  0.41754340  0.43381064     0.08900
H391        H  0.36388457  0.48295182  0.43836250     0.08900
H392        H  0.35570963  0.43602405  0.48663878     0.05700
C393        C  0.47520609  0.54368199  0.03965960    -0.20100
C394        C  0.47002626  0.49428753  0.06289116    -0.06700
C395        C  0.46875055  0.44753088  0.03212729     0.14200
C396        C  0.47294490  0.45160242  0.98007960    -0.20200
C397        C  0.47736927  0.50097680  0.95705468    -0.06700
C398        C  0.47802366  0.54773699  0.98744631     0.14200
C399        C  0.48347251  0.60192178  0.96527005    -0.23500
H400        H  0.47783162  0.57952387  0.06260814     0.15500
H401        H  0.47203403  0.41570514  0.95692038     0.15500
C402        C  0.46187250  0.39299861  0.05333986    -0.23500
H403        H  0.48580665  0.63393644  0.99442886     0.05700
H404        H  0.44845148  0.60999655  0.94121356     0.08900
H405        H  0.52028930  0.60375702  0.94290585     0.08900
H406        H  0.42515990  0.39172214  0.07589893     0.08900
H407        H  0.49694237  0.38310329  0.07665730     0.08900
H408        H  0.45821582  0.36163937  0.02366766     0.05700
C409        C  0.97853326  0.45692222  0.51796646    -0.20100
C410        C  0.97146492  0.50469740  0.54557083    -0.06700
C411        C  0.95969668  0.55136461  0.51889641     0.14200
C412        C  0.95735483  0.54941148  0.46634448    -0.20200
C413        C  0.96406533  0.50168488  0.43892891    -0.06700
C414        C  0.97417451  0.45465238  0.46541116     0.14200
C415        C  0.98235304  0.40222011  0.43837169    -0.23500
H416        H  0.98716762  0.42086333  0.53769626     0.15500
H417        H  0.94970625  0.58556068  0.44638983     0.15500
C418        C  0.95106528  0.60395512  0.54537719    -0.23500
H419        H  0.99170326  0.36985971  0.46439361     0.05700
H420        H  0.01596681  0.40572058  0.41217062     0.08900
H421        H  0.94561492  0.39053192  0.41748140     0.08900
H422        H  0.98555109  0.61305080  0.57022891     0.08900
H423        H  0.91420397  0.60223710  0.56764265     0.08900
H424        H  0.94672724  0.63700371  0.51899926     0.05700
C425        C  0.93252222  0.50773512  0.01802992    -0.20100
C426        C  0.97987262  0.49850520  0.04500403    -0.06700
C427        C  0.02807823  0.49449451  0.01793886     0.14200
C428        C  0.02742687  0.49958503  0.96568111    -0.20200
C429        C  0.97998337  0.50779243  0.93896347    -0.06700
C430        C  0.93190570  0.51205238  0.96572114     0.14200
C431        C  0.88004595  0.52337547  0.93948595    -0.23500
H432        H  0.89549084  0.51156584  0.03804100     0.15500
H433        H  0.06430238  0.49621045  0.94531688     0.15500
C434        C  0.08084046  0.48635308  0.04369158    -0.23500
H435        H  0.84690847  0.52850893  0.96612154     0.05700
H436        H  0.86922109  0.49008317  0.91346153     0.08900
H437        H  0.88381316  0.56060610  0.91839682     0.08900
H438        H  0.08106410  0.44726003  0.06196115     0.08900
H439        H  0.08808012  0.51872804  0.07181831     0.08900
H440        H  0.11440423  0.48667049  0.01713931     0.05700
C441        C  0.53445843  0.99439145  0.53061108    -0.20100
C442        C  0.48461087  0.99846544  0.55395150    -0.06700
C443        C  0.43872068  0.00173194  0.52306616     0.14200
C444        C  0.44393920  0.00035055  0.47062667    -0.20200
C445        C  0.49366957  0.99588362  0.44728132    -0.06700
C446        C  0.53968793  0.99376912  0.47825106     0.14200
C447        C  0.59460737  0.98958951  0.45658228    -0.23500
H448        H  0.56995443  0.99196168  0.55368081     0.15500
H449        H  0.40880114  0.00373822  0.44754966     0.15500
C450        C  0.38390156  0.00495186  0.54494318    -0.23500
H451        H  0.62564356  0.98549620  0.48594450     0.05700
H452        H  0.60416688  0.02600555  0.43586943     0.08900
H453        H  0.59671035  0.95418527  0.43121410     0.08900
H454        H  0.38019065  0.04202480  0.56782257     0.08900
H455        H  0.37655406  0.96992422  0.56834422     0.08900
H456        H  0.35249665  0.00549419  0.51562134     0.05700
C457        C  0.50702441  0.04335391  0.97167359    -0.20100
C458        C  0.49870200  0.99365189  0.94736052    -0.06700
C459        C  0.48661834  0.94914234  0.97690203     0.14200
C460        C  0.48399131  0.95545798  0.02904682    -0.20200
C461        C  0.49183129  0.00504217  0.05322967    -0.06700
C462        C  0.50310970  0.04971610  0.02392779     0.14200
C463        C  0.51259120  0.10387196  0.04764104    -0.23500
H464        H  0.51588956  0.07771253  0.94957172     0.15500
H465        H  0.47522798  0.92130413  0.05135352     0.15500
C466        C  0.47772079  0.89433339  0.95412372    -0.23500
H467        H  0.52272560  0.13394996  0.01962453     0.05700
H468        H  0.54611192  0.10212213  0.07477563     0.08900
H469        H  0.47615373  0.11739753  0.06701291     0.08900
H470        H  0.51283687  0.88235547  0.93190146     0.08900
H471        H  0.44144784  0.89374989  0.93026523     0.08900
H472        H  0.47147443  0.86404636  0.98272607     0.05700
C473        C  0.03019976  0.99207789  0.52968458    -0.20100
C474        C  0.98764765  0.01657959  0.55496807    -0.06700
C475        C  0.94475232  0.03571045  0.52578711     0.14200
C476        C  0.94618578  0.03067331  0.47318987    -0.20200
C477        C  0.98855129  0.00554334  0.44806853    -0.06700
C478        C  0.03104807  0.98563960  0.47741769     0.14200
C479        C  0.07799016  0.95748863  0.45448201    -0.23500
H480        H  0.06330279  0.97696918  0.55112852     0.15500
H481        H  0.91332045  0.04595365  0.45151732     0.15500
C482        C  0.89639221  0.05995592  0.54956173    -0.23500
H483        H  0.10872678  0.94749060  0.48266876     0.05700
H484        H  0.09707316  0.98304819  0.42669078     0.08900
H485        H  0.06458475  0.91962047  0.43618457     0.08900
H486        H  0.90743272  0.09740329  0.56992903     0.08900
H487        H  0.87820383  0.03142722  0.57537230     0.08900
H488        H  0.86569720  0.06943647  0.52150981     0.05700
C489        C  0.95636903  0.96507440  0.97422075    -0.20100
C490        C  0.98894004  0.00085016  0.94869099    -0.06700
C491        C  0.02249173  0.03577093  0.97774940     0.14200
C492        C  0.02225427  0.03367051  0.03005403    -0.20200
C493        C  0.98992554  0.99785275  0.05563244    -0.06700
C494        C  0.95631052  0.96292032  0.02672612     0.14200
C495        C  0.92026464  0.92265893  0.05019355    -0.23500
H496        H  0.93066872  0.93809973  0.95288779     0.15500
H497        H  0.04798539  0.06073659  0.05124610     0.15500
C498        C  0.05925298  0.07582242  0.95480694    -0.23500
H499        H  0.89781368  0.89838511  0.02188812     0.05700
H500        H  0.89057828  0.94325371  0.07394357     0.08900
H501        H  0.94420043  0.89488740  0.07265649     0.08900
H502        H  0.03580235  0.10407252  0.93246366     0.08900
H503        H  0.08897258  0.05510293  0.93119073     0.08900
H504        H  0.08185264  0.09964717  0.98332788     0.05700
C505        C  0.73269765  0.12474194  0.59309629    -0.20100
C506        C  0.74497024  0.11489613  0.54322181    -0.06700
C507        C  0.74951195  0.06180529  0.52487430     0.14200
C508        C  0.74682722  0.02018208  0.55856749    -0.20200
C509        C  0.73674112  0.03093748  0.60885699    -0.06700
C510        C  0.72779005  0.08370427  0.62606022     0.14200
C511        C  0.71534802  0.09777687  0.67971652    -0.23500
H512        H  0.72934137  0.16518608  0.60736388     0.15500
H513        H  0.75288906  0.97948689  0.54574419     0.15500
C514        C  0.75595459  0.04759890  0.47053306    -0.23500
H515        H  0.71040409  0.14129045  0.68597091     0.05700
H516        H  0.74813378  0.08513145  0.70453013     0.08900
H517        H  0.67750340  0.07854130  0.69051187     0.08900
H518        H  0.75250539  0.08243459  0.44632338     0.08900
H519        H  0.72408720  0.01911255  0.45860283     0.08900
H520        H  0.79515732  0.02854502  0.46452524     0.05700
C521        C  0.77402345  0.33523453  0.65987589    -0.20100
C522        C  0.73493392  0.37354570  0.65060625    -0.06700
C523        C  0.70377150  0.37017765  0.60668667     0.14200
C524        C  0.71297400  0.32844141  0.57285761    -0.20200
C525        C  0.75356588  0.29187308  0.58141188    -0.06700
C526        C  0.78393320  0.29435882  0.62552452     0.14200
C527        C  0.82709984  0.25468188  0.63600967    -0.23500
H528        H  0.79858356  0.33880329  0.69318758     0.15500
H529        H  0.69043355  0.32597358  0.53826678     0.15500
C530        C  0.66406220  0.41234081  0.59334246    -0.23500
H531        H  0.84594145  0.26210240  0.67311238     0.05700
H532        H  0.85868683  0.25727879  0.60769136     0.08900
H533        H  0.81012028  0.21382621  0.63522077     0.08900
H534        H  0.68388676  0.45195471  0.59378586     0.08900
H535        H  0.63070548  0.41275081  0.61993021     0.08900
H536        H  0.64667864  0.40510592  0.55560624     0.05700
C537        C  0.65353216  0.29448951  0.42668522    -0.20100
C538        C  0.65872649  0.24703246  0.45259660    -0.06700
C539        C  0.61403151  0.21312326  0.45755533     0.14200
C540        C  0.56652434  0.22631663  0.43352918    -0.20200
C541        C  0.56455652  0.26843947  0.40022514    -0.06700
C542        C  0.60765163  0.30487854  0.39886016     0.14200
C543        C  0.60804530  0.35185107  0.36498220    -0.23500
H544        H  0.68733468  0.32136584  0.42480074     0.15500
H545        H  0.53290945  0.19911585  0.43490020     0.15500
C546        C  0.61709515  0.15991355  0.48234607    -0.23500
H547        H  0.64655511  0.37379423  0.36698997     0.05700
H548        H  0.57660459  0.38033659  0.37609052     0.08900
H549        H  0.60175301  0.33831534  0.32574632     0.08900
H550        H  0.62078784  0.16521908  0.52319205     0.08900
H551        H  0.65112592  0.13672485  0.46756700     0.08900
H552        H  0.58059394  0.13560320  0.47525397     0.05700
C553        C  0.85624117  0.23130263  0.38523330    -0.20100
C554        C  0.86044460  0.22797869  0.43697216    -0.06700
C555        C  0.91231905  0.22896575  0.45926264     0.14200
C556        C  0.95643668  0.24145162  0.43010366    -0.20200
C557        C  0.95046685  0.24975270  0.37923427    -0.05100
C558        C  0.89975907  0.24315687  0.35624162     0.14200
C559        C  0.89037579  0.24734566  0.30082474    -0.23500
H560        H  0.81905151  0.22305608  0.36624478     0.15500
H561        H  0.99589613  0.24317731  0.44680977     0.15500
C562        C  0.92372693  0.21554889  0.51274688    -0.23500
H563        H  0.84800959  0.24056554  0.29014264     0.05700
H564        H  0.91357023  0.21692275  0.28032168     0.08900
H565        H  0.90085549  0.28772364  0.28852781     0.08900
H566        H  0.88878479  0.20052170  0.53275202     0.08900
H567        H  0.93974603  0.25124657  0.53307320     0.08900
H568        H  0.95395624  0.18357035  0.51391989     0.05700
C569        C  0.75153014  0.13431636  0.03921185    -0.20100
C570        C  0.78585064  0.17797640  0.04656316    -0.06700
C571        C  0.80002022  0.19496802  0.09562664     0.14200
C572        C  0.78086237  0.16637435  0.13563891    -0.20200
C573        C  0.75017179  0.12012279  0.12796896    -0.06700
C574        C  0.73422630  0.10442278  0.07929203     0.14200
C575        C  0.70165518  0.05469296  0.06905245    -0.23500
H576        H  0.73988470  0.12213509  0.00199222     0.15500
H577        H  0.79290752  0.17796524  0.17322067     0.15500
C578        C  0.83593919  0.24233548  0.10672964    -0.23500
H579        H  0.69524335  0.04717212  0.02855641     0.05700
H580        H  0.66195036  0.05866068  0.08629112     0.08900
H581        H  0.72239013  0.01970400  0.08429534     0.08900
H582        H  0.82042554  0.27836856  0.08904376     0.08900
H583        H  0.87667345  0.23437365  0.09326691     0.08900
H584        H  0.83925917  0.25128129  0.14730075     0.05700
C585        C  0.72136751  0.30947456  0.06410014    -0.20100
C586        C  0.74548133  0.33295629  0.02320295    -0.06700
C587        C  0.74781402  0.38896458  0.02072919     0.14200
C588        C  0.73478992  0.41963434  0.06278022    -0.20200
C589        C  0.71862010  0.39539817  0.10649111    -0.06700
C590        C  0.70947089  0.33996320  0.10669151     0.14200
C591        C  0.69214886  0.31231937  0.15299863    -0.23500
H592        H  0.71787643  0.26662651  0.06535050     0.15500
H593        H  0.74004593  0.46246961  0.06238389     0.15500
C594        C  0.76567789  0.41715673  0.97498205    -0.23500
H595        H  0.68939592  0.26850318  0.14700385     0.05700
H596        H  0.65238579  0.32671294  0.16441575     0.08900
H597        H  0.72135064  0.32047670  0.18356253     0.08900
H598        H  0.77226390  0.38929321  0.94307300     0.08900
H599        H  0.80307838  0.43945619  0.98338267     0.08900
H600        H  0.73458228  0.44563270  0.96346886     0.05700
C601        C  0.73857182  0.27550601  0.84448358    -0.20100
C602        C  0.74350742  0.23347028  0.87746385    -0.06700
C603        C  0.70867106  0.18954460  0.87262559     0.14200
C604        C  0.66556826  0.19179036  0.83950207    -0.20200
C605        C  0.65838422  0.23531865  0.80814215    -0.06700
C606        C  0.69756073  0.27611226  0.80877347     0.14200
C607        C  0.69804881  0.32040650  0.77228760    -0.23500
H608        H  0.76639562  0.30864431  0.84712842     0.15500
H609        H  0.63669563  0.15957635  0.83933486     0.15500
C610        C  0.71646636  0.13940812  0.90103173    -0.23500
H611        H  0.73803586  0.32280973  0.75569291     0.05700
H612        H  0.68976940  0.35876335  0.79190985     0.08900
H613        H  0.66914683  0.31400487  0.74126176     0.08900
H614        H  0.68327128  0.13426488  0.92742869     0.08900
H615        H  0.75498466  0.13951768  0.92137678     0.08900
H616        H  0.71695667  0.10475253  0.87463064     0.05700
C617        C  0.96558896  0.25133048  0.96117927    -0.20100
C618        C  0.92152223  0.28355891  0.94930670    -0.06700
C619        C  0.93097976  0.32905743  0.91997001     0.14200
C620        C  0.98018026  0.33477793  0.89726585    -0.20200
C621        C  0.01644497  0.29262112  0.89653032    -0.06700
C622        C  0.01367206  0.25638389  0.93546287     0.14200
C623        C  0.06105141  0.22303503  0.94880881    -0.23500
H624        H  0.96241334  0.21977079  0.98734353     0.15500
H625        H  0.98530908  0.36757426  0.87247633     0.15500
C626        C  0.88897588  0.36988717  0.90819059    -0.23500
H627        H  0.05216168  0.19676483  0.98029368     0.05700
H628        H  0.09459388  0.24967704  0.96032663     0.08900
H629        H  0.07415806  0.19786283  0.91695239     0.08900
H630        H  0.88074706  0.39482946  0.94164398     0.08900
H631        H  0.85194374  0.35106393  0.89350768     0.08900
H632        H  0.90199865  0.39717542  0.87900793     0.05700
C633        C  0.42011030  0.74539977  0.56720376    -0.20100
C634        C  0.39612253  0.72468445  0.60937012    -0.06700
C635        C  0.34193198  0.70978799  0.60780322     0.14200
C636        C  0.31113309  0.72390104  0.56670911    -0.20200
C637        C  0.33345105  0.75347628  0.52846898    -0.06700
C638        C  0.38931630  0.75875369  0.52592920     0.14200
C639        C  0.41700613  0.77980837  0.48104251    -0.23500
H640        H  0.46239923  0.75430078  0.56777262     0.15500
H641        H  0.26858438  0.71736725  0.56776580     0.15500
C642        C  0.31535277  0.68402771  0.65122743    -0.23500
H643        H  0.44716614  0.75066194  0.46814625     0.05700
H644        H  0.43729993  0.81804896  0.49086843     0.08900
H645        H  0.38903474  0.78579782  0.44955202     0.08900
H646        H  0.32000275  0.70968413  0.68521014     0.08900
H647        H  0.33339504  0.64464556  0.65778937     0.08900
H648        H  0.27210068  0.67760097  0.64433407     0.05700
C649        C  0.12185936  0.77219392  0.54282896    -0.20100
C650        C  0.17246709  0.79177754  0.55552865    -0.06700
C651        C  0.18983036  0.79316500  0.60576182     0.14200
C652        C  0.15634891  0.77291519  0.64174543    -0.20200
C653        C  0.10553180  0.75386949  0.62891905    -0.06700
C654        C  0.08797591  0.75316575  0.57908956     0.14200
C655        C  0.03252473  0.73519897  0.56482202    -0.23500
H656        H  0.10753900  0.77466764  0.50502783     0.15500
H657        H  0.16821275  0.77590297  0.68064750     0.15500
C658        C  0.24146865  0.81838305  0.62352525    -0.23500
H659        H  0.02556772  0.73614348  0.52399068     0.05700
H660        H  0.00281772  0.76130799  0.58322865     0.08900
H661        H  0.02657447  0.69388551  0.57696007     0.08900
H662        H  0.26633447  0.83308095  0.59308751     0.08900
H663        H  0.26502515  0.78914399  0.64452694     0.08900
H664        H  0.23279075  0.85265606  0.64890407     0.05700
C665        C  0.26454658  0.75082036  0.35063408    -0.20100
C666        C  0.22667853  0.75193263  0.38868793    -0.06700
C667        C  0.18320043  0.71633350  0.38622171     0.14200
C668        C  0.18176140  0.67673129  0.34915226    -0.20200
C669        C  0.22158969  0.67288101  0.31304703    -0.06700
C670        C  0.26175808  0.71252531  0.31197337     0.14200
C671        C  0.30163584  0.71599184  0.27067043    -0.23500
H672        H  0.29702695  0.77945461  0.35148362     0.15500
H673        H  0.15050835  0.64688940  0.35017331     0.15500
C674        C  0.13764745  0.72003308  0.42176289    -0.23500
H675        H  0.30008717  0.75620310  0.25455931     0.05700
H676        H  0.29344480  0.68692258  0.23984698     0.08900
H677        H  0.34233658  0.70931749  0.28563381     0.08900
H678        H  0.12147922  0.76098826  0.42163472     0.08900
H679        H  0.15108639  0.70933063  0.45944905     0.08900
H680        H  0.10469937  0.69224818  0.41104071     0.05700
C681        C  0.24164837  0.97191966  0.46988379    -0.20100
C682        C  0.27672045  0.92942570  0.45949600    -0.06700
C683        C  0.31861281  0.93796689  0.42544639     0.14200
C684        C  0.31723301  0.98283497  0.39639223    -0.20200
C685        C  0.27434458  0.01822725  0.39836809    -0.06700
C686        C  0.24036624  0.01655790  0.43954005     0.14200
C687        C  0.20173448  0.06054667  0.45078380    -0.23500
H688        H  0.21183360  0.96915050  0.49824482     0.15500
H689        H  0.34638250  0.98572277  0.36737226     0.15500
C690        C  0.36206148  0.89789954  0.41474183    -0.23500
H691        H  0.20987308  0.07713849  0.48875595     0.05700
H692        H  0.16041022  0.04511252  0.44916294     0.08900
H693        H  0.20542441  0.09346178  0.42423611     0.08900
H694        H  0.34546572  0.85835245  0.40406326     0.08900
H695        H  0.38899745  0.89506596  0.44742337     0.08900
H696        H  0.38694031  0.90929169  0.38301262     0.05700
C697        C  0.42830996  0.74124739  0.03267788    -0.20100
C698        C  0.38924560  0.70144051  0.03943609    -0.06700
C699        C  0.39910525  0.66265736  0.07601747     0.14200
C700        C  0.44009645  0.67151945  0.11051495    -0.20200
C701        C  0.47371064  0.71617197  0.10858087    -0.06700
C702        C  0.47090805  0.74835141  0.06651039     0.14200
C703        C  0.51131741  0.79136462  0.05759830    -0.23500
H704        H  0.42499920  0.76909810  0.00298549     0.15500
H705        H  0.44289862  0.64513120  0.14153381     0.15500
C706        C  0.36516655  0.61318144  0.08172587    -0.23500
H707        H  0.52790129  0.78614271  0.01970616     0.05700
H708        H  0.54509081  0.79037484  0.08445611     0.08900
H709        H  0.49196800  0.83066357  0.06102658     0.08900
H710        H  0.32260294  0.62255917  0.08445979     0.08900
H711        H  0.37530152  0.59163572  0.11593399     0.08900
H712        H  0.37133829  0.58523079  0.04989610     0.05700
C713        C  0.14615959  0.70154414  0.15103033    -0.20100
C714        C  0.10725194  0.73872390  0.13865671    -0.06700
C715        C  0.11155490  0.76707803  0.09420540     0.14200
C716        C  0.15607899  0.75888756  0.06424435    -0.20200
C717        C  0.19611666  0.72308302  0.07746996    -0.06700
C718        C  0.19005805  0.69251625  0.12061698     0.14200
C719        C  0.22711367  0.64786729  0.13334868    -0.23500
H720        H  0.14173891  0.67896757  0.18459338     0.15500
H721        H  0.15918208  0.78017404  0.02990506     0.15500
C722        C  0.06841055  0.80399221  0.07695141    -0.23500
H723        H  0.21222614  0.62455269  0.16491336     0.05700
H724        H  0.26667626  0.66374295  0.14472286     0.08900
H725        H  0.23049515  0.62003544  0.10087387     0.08900
H726        H  0.06486088  0.83859413  0.10295637     0.08900
H727        H  0.02981922  0.78228185  0.07456131     0.08900
H728        H  0.07692868  0.81977543  0.03961938     0.05700
C729        C  0.25647041  0.55555073  0.97045328    -0.20100
C730        C  0.23554970  0.60468040  0.95511954    -0.06700
C731        C  0.19577365  0.60359859  0.91729132     0.14200
C732        C  0.18782241  0.55664542  0.88933217    -0.20200
C733        C  0.21719673  0.51048181  0.89853192    -0.06700
C734        C  0.24795063  0.50842641  0.94242062     0.14200
C735        C  0.27186874  0.45707022  0.95942155    -0.23500
H736        H  0.28237163  0.55449828  0.00286867     0.15500
H737        H  0.16185505  0.55774134  0.85700677     0.15500
C738        C  0.16235400  0.65066103  0.90383658    -0.23500
H739        H  0.29323822  0.46253952  0.99557675     0.05700
H740        H  0.30065030  0.44113254  0.93208981     0.08900
H741        H  0.23968851  0.42724055  0.96427534     0.08900
H742        H  0.18781334  0.68456168  0.89398843     0.08900
H743        H  0.13573243  0.66112750  0.93514855     0.08900
H744        H  0.13595813  0.64197898  0.87119705     0.05700
C745        C  0.24605060  0.77706381  0.87934348    -0.20100
C746        C  0.25097953  0.79137902  0.92983503    -0.06700
C747        C  0.24447612  0.84494962  0.94542006     0.14200
C748        C  0.23299068  0.88305417  0.90981787    -0.20200
C749        C  0.22991110  0.86894995  0.85916139    -0.06700
C750        C  0.23526600  0.81522420  0.84367242     0.14200
C751        C  0.23216090  0.79737350  0.78975706    -0.23500
H752        H  0.25391170  0.73650778  0.86722151     0.15500
H753        H  0.23018890  0.92464410  0.92106111     0.15500
C754        C  0.25311786  0.86264683  0.99888945    -0.23500
H755        H  0.20038889  0.76673104  0.78480810     0.05700
H756        H  0.27073088  0.77980814  0.77843704     0.08900
H757        H  0.22285646  0.83027275  0.76443419     0.08900
H758        H  0.29464061  0.85435134  0.01061257     0.08900
H759        H  0.22552531  0.84130804  0.02331553     0.08900
H760        H  0.24626990  0.90597614  0.00436748     0.05700
loop_ 
_geom_bond_atom_site_label_1 
_geom_bond_atom_site_label_2 
_geom_bond_distance 
_geom_bond_site_symmetry_2 
_ccdc_geom_bond_type 
C1            C2   1.533   1_554  S
C1            C7   1.540       .  S
C1            C5   1.535   1_554  S
C1          C698   1.529       .  S
C2            H9   1.084       .  S
C2            C3   1.371       .  D
C3            C4   1.543       .  S
C3          C730   1.501       .  S
C4            C8   1.526   1_556  S
C4            C6   1.542       .  S
C4           H10   1.098       .  S
C5           H11   1.082       .  S
C5            C6   1.363       .  D
C6          C746   1.471       .  S
C7           H12   1.085       .  S
C7            C8   1.358       .  D
C8          C717   1.480       .  S
C13          C14   1.538       .  S
C13          C19   1.537       .  S
C13          C17   1.536       .  S
C13         C682   1.521       .  S
C14          H21   1.083       .  S
C14          C15   1.364       .  D
C15          C16   1.535       .  S
C15         C650   1.460       .  S
C16          C20   1.529       .  S
C16          C18   1.529       .  S
C16          H22   1.109       .  S
C17          H23   1.085       .  S
C17          C18   1.366       .  D
C18         C637   1.478       .  S
C19          H24   1.087       .  S
C19          C20   1.355       .  D
C20         C666   1.475       .  S
C25          C26   1.535       .  S
C25          C31   1.535       .  S
C25          C29   1.542       .  S
C25         C618   1.528       .  S
C26          H33   1.085   1_556  S
C26          C27   1.364       .  D
C27          C28   1.530       .  S
C27         C586   1.477   1_556  S
C28          C32   1.536       .  S
C28          C30   1.537   1_556  S
C28          H34   1.111       .  S
C29          H35   1.081   1_556  S
C29          C30   1.367   1_556  D
C30         C570   1.476       .  S
C31          H36   1.087       .  S
C31          C32   1.359       .  D
C32         C602   1.478       .  S
C37          C38   1.530       .  S
C37          C43   1.554       .  S
C37          C41   1.527       .  S
C37         C554   1.520       .  S
C38          H45   1.087       .  S
C38          C39   1.356       .  D
C39          C40   1.521       .  S
C39         C525   1.452       .  S
C40          C44   1.516       .  S
C40          C42   1.534       .  S
C40          H46   1.106       .  S
C41          H47   1.082       .  S
C41          C42   1.363       .  D
C42         C506   1.469       .  S
C43          H48   1.082       .  S
C43          C44   1.365       .  D
C44         C538   1.476       .  S
C49          C50   1.399   1_655  A
C49          C54   1.419       .  A
C49         C289   1.478       .  S
C50          C51   1.393       .  A
C50          H55   1.086       .  S
C51          C52   1.392       .  A
C51         C714   1.472       .  S
C52          C53   1.399       .  A
C52          H56   1.084       .  S
C53          C54   1.421   1_455  A
C53         C157   1.476   1_455  S
C54          H57   1.082       .  S
C58          C59   1.398       .  A
C58          C63   1.434   1_455  A
C58         C308   1.473   1_455  S
C59          C60   1.376       .  A
C59          H64   1.086       .  S
C60          C61   1.376       .  A
C60         C653   1.453       .  S
C61          C62   1.403       .  A
C61          H65   1.085       .  S
C62          C63   1.429   1_455  A
C62         C183   1.505   1_455  S
C63          H66   1.082       .  S
C67          C68   1.414       .  A
C67          C72   1.429       .  A
C67         C348   1.507       .  S
C68          C69   1.384       .  A
C68          H73   1.083       .  S
C69          C70   1.385       .  A
C69         C589   1.469       .  S
C70          C71   1.396       .  A
C70          H74   1.086       .  S
C71          C72   1.429       .  A
C71         C284   1.483       .  S
C72          H75   1.082       .  S
C76          C77   1.399       .  A
C76          C81   1.423       .  A
C76         C373   1.473       .  S
C77          C78   1.388       .  A
C77          H82   1.084       .  S
C78          C79   1.384       .  A
C78         C522   1.463       .  S
C79          C80   1.389       .  A
C79          H83   1.087       .  S
C80          C81   1.421       .  A
C80         C307   1.469       .  S
C81          H84   1.082       .  S
C85          C86   1.433       .  A
C85          C90   1.402       .  A
C85         C349   1.496       .  S
C86          C87   1.433       .  A
C86          H91   1.082       .  S
C87          C88   1.405       .  A
C87         C225   1.499       .  S
C88          C89   1.396       .  A
C88          H92   1.084       .  S
C89          C90   1.390       .  A
C89         C701   1.488       .  S
C90          H93   1.087       .  S
C94          C95   1.397       .  A
C94          C99   1.417       .  A
C94         C372   1.462       .  S
C95          C96   1.382       .  A
C95         H100   1.086       .  S
C96          C97   1.391       .  A
C96         C634   1.464       .  S
C97          C98   1.401       .  A
C97         H101   1.086       .  S
C98          C99   1.417       .  A
C98         C243   1.476       .  S
C99         H102   1.083       .  S
C103        C104   1.420       .  A
C103        C108   1.404       .  A
C103        C223   1.475       .  S
C104        C105   1.417       .  A
C104        H109   1.083   1_545  S
C105        C106   1.392       .  A
C105        C160   1.473       .  S
C106        C107   1.390       .  A
C106        H110   1.086       .  S
C107        C108   1.393       .  A
C107        C573   1.472       .  S
C108        H111   1.084       .  S
C112        C113   1.429       .  A
C112        C117   1.406       .  A
C112        C245   1.490       .  S
C113        C114   1.429       .  A
C113        H118   1.082       .  S
C114        C115   1.401       .  A
C114        C180   1.486       .  S
C115        C116   1.380       .  A
C115        H119   1.086       .  S
C116        C117   1.380       .  A
C116        C509   1.460   1_565  S
C117        H120   1.086       .  S
C121        C122   1.404       .  A
C121        C126   1.436       .  A
C121        C161   1.499       .  S
C122        C123   1.379   1_455  A
C122        H127   1.086       .  S
C123        C124   1.379   1_655  A
C123        C557   1.468       .  S
C124        C125   1.406       .  A
C124        H128   1.084   1_455  S
C125        C126   1.436       .  A
C125        C285   1.497   1_455  S
C126        H129   1.082       .  S
C130        C131   1.408       .  A
C130        C135   1.420   1_455  A
C130        C181   1.490   1_455  S
C131        C132   1.400       .  A
C131        H136   1.082       .  S
C132        C133   1.393       .  A
C132        C621   1.493       .  S
C133        C134   1.402       .  A
C133        H137   1.086       .  S
C134        C135   1.420   1_455  A
C134        C312   1.478   1_455  S
C135        H138   1.083       .  S
Zn139       O143   2.031   1_455  S
Zn139       O144   2.061       .  S
Zn139       O148   2.081       .  S
Zn139       O155   2.098       .  S
Zn140       O143   1.976   1_565  S
Zn140       O145   2.034       .  S
Zn140       O147   2.046       .  S
Zn140       O151   2.040       .  S
Zn141       O143   1.958   1_465  S
Zn141       O146   2.027       .  S
Zn141       O149   2.048       .  S
Zn141       O152   2.054       .  S
Zn142       O143   1.951       .  S
Zn142       O150   2.060       .  S
Zn142       O153   2.032       .  S
Zn142       O154   2.007       .  S
O144        C156   1.282   1_445  A
O145        C157   1.274       .  A
O146        C158   1.278   1_565  A
O147        C156   1.277       .  A
O148        C158   1.279       .  A
O149        C157   1.278   1_455  A
O150        C159   1.277       .  A
O151        C160   1.275   1_565  A
O152        C159   1.277   1_465  A
O153        C160   1.275       .  A
O154        C161   1.279   1_655  A
O155        C161   1.277       .  A
C156        C493   1.512       .  S
C158        C185   1.493       .  S
C159        C477   1.513       .  S
Zn162       O166   1.929   1_455  S
Zn162       O167   2.016       .  S
Zn162       O171   1.977       .  S
Zn162       O178   2.020       .  S
Zn163       O166   2.051   1_565  S
Zn163       O168   2.061       .  S
Zn163       O170   2.082       .  S
Zn163       O174   2.112       .  S
Zn164       O166   1.982       .  S
Zn164       O169   2.102       .  S
Zn164       O172   2.038       .  S
Zn164       O175   2.096       .  S
Zn165       O166   1.935   1_465  S
Zn165       O173   2.020       .  S
Zn165       O176   1.958       .  S
Zn165       O177   2.038       .  S
O167        C179   1.272   1_445  A
O168        C180   1.278       .  A
O169        C181   1.281       .  A
O170        C179   1.282       .  A
O171        C181   1.273   1_455  A
O172        C180   1.285   1_545  A
O173        C182   1.273   1_465  A
O174        C183   1.277       .  A
O175        C182   1.281       .  A
O176        C183   1.272   1_455  A
O177        C184   1.272       .  A
O178        C184   1.272   1_545  A
C179        C490   1.513   1_565  S
C182        C474   1.515       .  S
C184        C194   1.473       .  S
C185        C186   1.409       .  A
C185        C190   1.424       .  A
C186        C187   1.401       .  A
C186        H191   1.083       .  S
C187        C188   1.391       .  A
C187        C685   1.488       .  S
C188        C189   1.397       .  A
C188        H192   1.087       .  S
C189        C190   1.421       .  A
C189        C220   1.483       .  S
C190        H193   1.082       .  S
C194        C195   1.428       .  A
C194        C199   1.401       .  A
C195        C196   1.425       .  A
C195        H200   1.082   1_565  S
C196        C197   1.414       .  A
C196        C247   1.508       .  S
C197        C198   1.385       .  A
C197        H201   1.084       .  S
C198        C199   1.380       .  A
C198        C749   1.468       .  S
C199        H202   1.086       .  S
Zn203       O207   1.985   1_565  S
Zn203       O208   2.066       .  S
Zn203       O212   2.100       .  S
Zn203       O219   2.123       .  S
Zn204       O207   2.038       .  S
Zn204       O209   2.087       .  S
Zn204       O211   2.044       .  S
Zn204       O215   2.072       .  S
Zn205       O207   1.959       .  S
Zn205       O210   2.049       .  S
Zn205       O213   1.981       .  S
Zn205       O216   2.036       .  S
Zn206       O207   1.945   1_565  S
Zn206       O214   2.033       .  S
Zn206       O217   2.039       .  S
Zn206       O218   2.015       .  S
O208        C220   1.285   1_565  A
O209        C221   1.276       .  A
O210        C222   1.275   1_545  A
O211        C220   1.275       .  A
O212        C222   1.281       .  A
O213        C221   1.274       .  A
O214        C223   1.275   1_565  A
O215        C224   1.280       .  A
O216        C223   1.273       .  A
O217        C224   1.276   1_565  A
O218        C225   1.277       .  A
O219        C225   1.284       .  A
C221        C251   1.499       .  S
C222        C445   1.513       .  S
C224        C461   1.499       .  S
Zn226       O230   1.931       .  S
Zn226       O231   1.990       .  S
Zn226       O235   1.986       .  S
Zn226       O242   2.033       .  S
Zn227       O230   1.944       .  S
Zn227       O232   2.026       .  S
Zn227       O234   2.058       .  S
Zn227       O238   1.954       .  S
Zn228       O230   1.964   1_545  S
Zn228       O233   2.096       .  S
Zn228       O236   2.072       .  S
Zn228       O239   1.992       .  S
Zn229       O230   2.060   1_545  S
Zn229       O237   2.131       .  S
Zn229       O240   2.143       .  S
Zn229       O241   2.110       .  S
O231        C243   1.271       .  A
O232        C244   1.273       .  A
O233        C245   1.279   1_545  A
O234        C243   1.273       .  A
O235        C245   1.273       .  A
O236        C244   1.278   1_545  A
O237        C246   1.284       .  A
O238        C247   1.271       .  A
O239        C246   1.279       .  A
O240        C247   1.285   1_545  A
O241        C248   1.284   1_545  A
O242        C248   1.275       .  A
C244        C458   1.504       .  S
C246        C258   1.507       .  S
C248        C442   1.512       .  S
C249        C250   1.425       .  A
C249        C254   1.404       .  A
C249        C353   1.476       .  S
C250        C251   1.421       .  A
C250        H255   1.082       .  S
C251        C252   1.402       .  A
C252        C253   1.391       .  A
C252        H256   1.083       .  S
C253        C254   1.387       .  A
C253        C541   1.479       .  S
C254        H257   1.083       .  S
C258        C259   1.433       .  A
C258        C263   1.408       .  A
C259        C260   1.433       .  A
C259        H264   1.082       .  S
C260        C261   1.413       .  A
C260        C376   1.509       .  S
C261        C262   1.391       .  A
C261        H265   1.082       .  S
C262        C263   1.386       .  A
C262        C605   1.493       .  S
C263        H266   1.085       .  S
Zn267       O271   1.972       .  S
Zn267       O272   2.053       .  S
Zn267       O276   2.057       .  S
Zn267       O283   2.042       .  S
Zn268       O271   1.960       .  S
Zn268       O273   2.024       .  S
Zn268       O275   2.059       .  S
Zn268       O279   2.076       .  S
Zn269       O271   2.037   1_455  S
Zn269       O274   2.076       .  S
Zn269       O277   2.089       .  S
Zn269       O280   2.085       .  S
Zn270       O271   1.960   1_455  S
Zn270       O278   1.995       .  S
Zn270       O281   2.045   1_455  S
Zn270       O282   2.039   1_455  S
O272        C284   1.280       .  A
O273        C285   1.281       .  A
O274        C286   1.282   1_455  A
O275        C284   1.278       .  A
O276        C286   1.279       .  A
O277        C285   1.279   1_455  A
O278        C287   1.276       .  A
O279        C288   1.278       .  A
O280        C287   1.277       .  A
O281        C288   1.275       .  A
O282        C289   1.274       .  A
O283        C289   1.276       .  A
C286        C426   1.510       .  S
C287        C313   1.492       .  S
C288        C413   1.503       .  S
Zn290       O294   1.944       .  S
Zn290       O295   2.006       .  S
Zn290       O299   2.032       .  S
Zn290       O306   2.021       .  S
Zn291       O294   1.973       .  S
Zn291       O296   2.042       .  S
Zn291       O298   2.052       .  S
Zn291       O302   2.074       .  S
Zn292       O294   1.957   1_455  S
Zn292       O297   2.068       .  S
Zn292       O300   2.043       .  S
Zn292       O303   2.010       .  S
Zn293       O294   2.039   1_455  S
Zn293       O301   2.093       .  S
Zn293       O304   2.073       .  S
Zn293       O305   2.049       .  S
O295        C307   1.274       .  A
O296        C308   1.277       .  A
O297        C309   1.276   1_455  A
O298        C307   1.276       .  A
O299        C309   1.271       .  A
O300        C308   1.278   1_455  A
O301        C310   1.278       .  A
O302        C311   1.282       .  A
O303        C310   1.279       .  A
O304        C311   1.282   1_455  A
O305        C312   1.273   1_455  A
O306        C312   1.278       .  A
C309        C429   1.499       .  S
C310        C322   1.497       .  S
C311        C410   1.512       .  S
C313        C314   1.404       .  A
C313        C318   1.424       .  A
C314        C315   1.390       .  A
C314        H319   1.085       .  S
C315        C316   1.390       .  A
C315        C669   1.479       .  S
C316        C317   1.399       .  A
C316        H320   1.085       .  S
C317        C318   1.424       .  A
C317        C351   1.479       .  S
C318        H321   1.082       .  S
C322        C323   1.428       .  A
C322        C327   1.406       .  A
C323        C324   1.430       .  A
C323        H328   1.082       .  S
C324        C325   1.408       .  A
C324        C375   1.496       .  S
C325        C326   1.393       .  A
C325        H329   1.083       .  S
C326        C327   1.387       .  A
C326        C733   1.484       .  S
C327        H330   1.086       .  S
Zn331       O335   1.954       .  S
Zn331       O336   1.965       .  S
Zn331       O340   2.035       .  S
Zn331       O347   2.028       .  S
Zn332       O335   2.043       .  S
Zn332       O337   2.117       .  S
Zn332       O339   2.130       .  S
Zn332       O343   2.112       .  S
Zn333       O335   1.935       .  S
Zn333       O338   2.061       .  S
Zn333       O341   2.009       .  S
Zn333       O344   2.009       .  S
Zn334       O335   1.973       .  S
Zn334       O342   2.074       .  S
Zn334       O345   2.041       .  S
Zn334       O346   2.033       .  S
O336        C348   1.271       .  A
O337        C349   1.282       .  A
O338        C350   1.276       .  A
O339        C348   1.282       .  A
O340        C350   1.273       .  A
O341        C349   1.276       .  A
O342        C351   1.278       .  A
O343        C352   1.289       .  A
O344        C351   1.274       .  A
O345        C352   1.277       .  A
O346        C353   1.276       .  A
O347        C353   1.272       .  A
C350        C394   1.507       .  S
C352        C378   1.523       .  S
Zn354       O358   1.953       .  S
Zn354       O359   2.043       .  S
Zn354       O363   2.061       .  S
Zn354       O370   1.992       .  S
Zn355       O358   1.965       .  S
Zn355       O360   2.033       .  S
Zn355       O362   2.062       .  S
Zn355       O366   2.007       .  S
Zn356       O358   1.962       .  S
Zn356       O361   2.008       .  S
Zn356       O364   1.999       .  S
Zn356       O367   2.037       .  S
Zn357       O358   2.038       .  S
Zn357       O365   2.107       .  S
Zn357       O368   2.112       .  S
Zn357       O369   2.133       .  S
O359        C371   1.276       .  A
O360        C372   1.274       .  A
O361        C373   1.271       .  A
O362        C371   1.277       .  A
O363        C373   1.277       .  A
O364        C372   1.271       .  A
O365        C374   1.286       .  A
O366        C375   1.277       .  A
O367        C374   1.275       .  A
O368        C375   1.284       .  A
O369        C376   1.284       .  A
O370        C376   1.275       .  A
C371        C397   1.498       .  S
C374        C381   1.519       .  S
C377        C378   1.408       .  A
C377        C382   1.417       .  A
C377        H384   1.083       .  S
C378        C379   1.430       .  A
C379        C386   1.509       .  S
C379        C380   1.416       .  A
C380        C381   1.405       .  A
C380        H385   1.084       .  S
C381        C382   1.427       .  A
C382        C383   1.508       .  S
C383        H387   1.111       .  S
C383        H388   1.109       .  S
C383        H389   1.110       .  S
C386        H390   1.110       .  S
C386        H391   1.110       .  S
C386        H392   1.111       .  S
C393        C394   1.410       .  A
C393        C398   1.413   1_554  A
C393        H400   1.081       .  S
C394        C395   1.421       .  A
C395        C402   1.508       .  S
C395        C396   1.411   1_554  A
C396        C397   1.405       .  A
C396        H401   1.084       .  S
C397        C398   1.415       .  A
C398        C399   1.507       .  S
C399        H403   1.111       .  S
C399        H404   1.110       .  S
C399        H405   1.110       .  S
C402        H406   1.110       .  S
C402        H407   1.109       .  S
C402        H408   1.111       .  S
C409        C410   1.410       .  A
C409        C414   1.416       .  A
C409        H416   1.084       .  S
C410        C411   1.421       .  A
C411        C418   1.505       .  S
C411        C412   1.414       .  A
C412        C413   1.405       .  A
C412        H417   1.084       .  S
C413        C414   1.418       .  A
C414        C415   1.507       .  S
C415        H419   1.111       .  S
C415        H420   1.110   1_655  S
C415        H421   1.110       .  S
C418        H422   1.108       .  S
C418        H423   1.110       .  S
C418        H424   1.111       .  S
C425        C426   1.411       .  A
C425        C430   1.414   1_554  A
C425        H432   1.084       .  S
C426        C427   1.423   1_655  A
C427        C434   1.507       .  S
C427        C428   1.414   1_554  A
C428        C429   1.405   1_455  A
C428        H433   1.084       .  S
C429        C430   1.416       .  A
C430        C431   1.508       .  S
C431        H435   1.111       .  S
C431        H436   1.109       .  S
C431        H437   1.110       .  S
C434        H438   1.110       .  S
C434        H439   1.110       .  S
C434        H440   1.111       .  S
C441        C442   1.411       .  A
C441        C446   1.415       .  A
C441        H448   1.084       .  S
C442        C443   1.418   1_565  A
C443        C450   1.506       .  S
C443        C444   1.417       .  A
C444        C445   1.409   1_545  A
C444        H449   1.079       .  S
C445        C446   1.420       .  A
C446        C447   1.507       .  S
C447        H451   1.111       .  S
C447        H452   1.110   1_565  S
C447        H453   1.110       .  S
C450        H454   1.109       .  S
C450        H455   1.110   1_545  S
C450        H456   1.110       .  S
C457        C458   1.410   1_545  A
C457        C462   1.415   1_556  A
C457        H464   1.084       .  S
C458        C459   1.421       .  A
C459        C466   1.509       .  S
C459        C460   1.410   1_556  A
C460        C461   1.404   1_565  A
C460        H465   1.082       .  S
C461        C462   1.417       .  A
C462        C463   1.506       .  S
C463        H467   1.111       .  S
C463        H468   1.110       .  S
C463        H469   1.110       .  S
C466        H470   1.110       .  S
C466        H471   1.109       .  S
C466        H472   1.107       .  S
C473        C474   1.411   1_465  A
C473        C478   1.411       .  A
C473        H480   1.083       .  S
C474        C475   1.420       .  A
C475        C482   1.505       .  S
C475        C476   1.418       .  A
C476        C477   1.412       .  A
C476        H481   1.084       .  S
C477        C478   1.422   1_645  A
C478        C479   1.510       .  S
C479        H483   1.111       .  S
C479        H484   1.108       .  S
C479        H485   1.110       .  S
C482        H486   1.110       .  S
C482        H487   1.110       .  S
C482        H488   1.105       .  S
C489        C490   1.408   1_565  A
C489        C494   1.414   1_556  A
C489        H496   1.083       .  S
C490        C491   1.427   1_655  A
C491        C498   1.509       .  S
C491        C492   1.409   1_556  A
C492        C493   1.406   1_445  A
C492        H497   1.083       .  S
C493        C494   1.426       .  A
C494        C495   1.508       .  S
C495        H499   1.111       .  S
C495        H500   1.110       .  S
C495        H501   1.110       .  S
C498        H502   1.110       .  S
C498        H503   1.110       .  S
C498        H504   1.111       .  S
C505        C506   1.396       .  A
C505        C510   1.382       .  A
C505        H512   1.082       .  S
C506        C507   1.418       .  A
C507        C514   1.507       .  S
C507        C508   1.403       .  A
C508        C509   1.399       .  A
C508        H513   1.084   1_545  S
C509        C510   1.415       .  A
C510        C511   1.514       .  S
C511        H515   1.111       .  S
C511        H516   1.108       .  S
C511        H517   1.109       .  S
C514        H518   1.107       .  S
C514        H519   1.110       .  S
C514        H520   1.110       .  S
C521        C522   1.405       .  A
C521        C526   1.391       .  A
C521        H528   1.084       .  S
C522        C523   1.411       .  A
C523        C530   1.508       .  S
C523        C524   1.394       .  A
C524        C525   1.399       .  A
C524        H529   1.084       .  S
C525        C526   1.404       .  A
C526        C527   1.508       .  S
C527        H531   1.111       .  S
C527        H532   1.109       .  S
C527        H533   1.109       .  S
C530        H534   1.110       .  S
C530        H535   1.108       .  S
C530        H536   1.111       .  S
C537        C538   1.403       .  A
C537        C542   1.398       .  A
C537        H544   1.084       .  S
C538        C539   1.415       .  A
C539        C546   1.511       .  S
C539        C540   1.397       .  A
C540        C541   1.404       .  A
C540        H545   1.085       .  S
C541        C542   1.415       .  A
C542        C543   1.509       .  S
C543        H547   1.111       .  S
C543        H548   1.109       .  S
C543        H549   1.110       .  S
C546        H550   1.106       .  S
C546        H551   1.110       .  S
C546        H552   1.111       .  S
C553        C554   1.399       .  A
C553        C558   1.385       .  A
C553        H560   1.077       .  S
C554        C555   1.429       .  A
C555        C562   1.510       .  S
C555        C556   1.403       .  A
C556        C557   1.396       .  A
C556        H561   1.085       .  S
C557        C558   1.418       .  A
C558        C559   1.513       .  S
C559        H563   1.111       .  S
C559        H564   1.105       .  S
C559        H565   1.106       .  S
C562        H566   1.104       .  S
C562        H567   1.110       .  S
C562        H568   1.111       .  S
C569        C570   1.400       .  A
C569        C574   1.400       .  A
C569        H576   1.077       .  S
C570        C571   1.418       .  A
C571        C578   1.512       .  S
C571        C572   1.397       .  A
C572        C573   1.401       .  A
C572        H577   1.084       .  S
C573        C574   1.411       .  A
C574        C575   1.508       .  S
C575        H579   1.111       .  S
C575        H580   1.109       .  S
C575        H581   1.110       .  S
C578        H582   1.105       .  S
C578        H583   1.108       .  S
C578        H584   1.111       .  S
C585        C586   1.402       .  A
C585        C590   1.399       .  A
C585        H592   1.082       .  S
C586        C587   1.412       .  A
C587        C594   1.506   1_554  S
C587        C588   1.396       .  A
C588        C589   1.400       .  A
C588        H593   1.085       .  S
C589        C590   1.411       .  A
C590        C591   1.508       .  S
C591        H595   1.111       .  S
C591        H596   1.109       .  S
C591        H597   1.110       .  S
C594        H598   1.109       .  S
C594        H599   1.110       .  S
C594        H600   1.110       .  S
C601        C602   1.402       .  A
C601        C606   1.402       .  A
C601        H608   1.085       .  S
C602        C603   1.407       .  A
C603        C610   1.503       .  S
C603        C604   1.397       .  A
C604        C605   1.409       .  A
C604        H609   1.084       .  S
C605        C606   1.417       .  A
C606        C607   1.502       .  S
C607        H611   1.106       .  S
C607        H612   1.110       .  S
C607        H613   1.108       .  S
C610        H614   1.110       .  S
C610        H615   1.107       .  S
C610        H616   1.111       .  S
C617        C618   1.415       .  A
C617        C622   1.405   1_655  A
C617        H624   1.076       .  S
C618        C619   1.426       .  A
C619        C626   1.514       .  S
C619        C620   1.393       .  A
C620        C621   1.403   1_655  A
C620        H625   1.081       .  S
C621        C622   1.407       .  A
C622        C623   1.506       .  S
C623        H627   1.110       .  S
C623        H628   1.110       .  S
C623        H629   1.107       .  S
C626        H630   1.106       .  S
C626        H631   1.106       .  S
C626        H632   1.106       .  S
C633        C634   1.400       .  A
C633        C638   1.395       .  A
C633        H640   1.085       .  S
C634        C635   1.410       .  A
C635        C642   1.509       .  S
C635        C636   1.397       .  A
C636        C637   1.403       .  A
C636        H641   1.082       .  S
C637        C638   1.412       .  A
C638        C639   1.505       .  S
C639        H643   1.110       .  S
C639        H644   1.110       .  S
C639        H645   1.109       .  S
C642        H646   1.110       .  S
C642        H647   1.109       .  S
C642        H648   1.111       .  S
C649        C650   1.397       .  A
C649        C654   1.393       .  A
C649        H656   1.078       .  S
C650        C651   1.415       .  A
C651        C658   1.508       .  S
C651        C652   1.393       .  A
C652        C653   1.398       .  A
C652        H657   1.086       .  S
C653        C654   1.406       .  A
C654        C655   1.505       .  S
C655        H659   1.111       .  S
C655        H660   1.110       .  S
C655        H661   1.106       .  S
C658        H662   1.104       .  S
C658        H663   1.109       .  S
C658        H664   1.111       .  S
C665        C666   1.405       .  A
C665        C670   1.401       .  A
C665        H672   1.084       .  S
C666        C667   1.408       .  A
C667        C674   1.501       .  S
C667        C668   1.392       .  A
C668        C669   1.404       .  A
C668        H673   1.084       .  S
C669        C670   1.415       .  A
C670        C671   1.508       .  S
C671        H675   1.110       .  S
C671        H676   1.108       .  S
C671        H677   1.111       .  S
C674        H678   1.110       .  S
C674        H679   1.105       .  S
C674        H680   1.111       .  S
C681        C682   1.414       .  A
C681        C686   1.404   1_565  A
C681        H688   1.078       .  S
C682        C683   1.421       .  A
C683        C690   1.516       .  S
C683        C684   1.388       .  A
C684        C685   1.403   1_565  A
C684        H689   1.080       .  S
C685        C686   1.407       .  A
C686        C687   1.504       .  S
C687        H691   1.110       .  S
C687        H692   1.106       .  S
C687        H693   1.110       .  S
C690        H694   1.106       .  S
C690        H695   1.108       .  S
C690        H696   1.105       .  S
C697        C698   1.414       .  A
C697        C702   1.405       .  A
C697        H704   1.078       .  S
C698        C699   1.423       .  A
C699        C706   1.515       .  S
C699        C700   1.392       .  A
C700        C701   1.403       .  A
C700        H705   1.081       .  S
C701        C702   1.408       .  A
C702        C703   1.504       .  S
C703        H707   1.110       .  S
C703        H708   1.109       .  S
C703        H709   1.107       .  S
C706        H710   1.100       .  S
C706        H711   1.107       .  S
C706        H712   1.107       .  S
C713        C714   1.401       .  A
C713        C718   1.397       .  A
C713        H720   1.084       .  S
C714        C715   1.412       .  A
C715        C722   1.509       .  S
C715        C716   1.399       .  A
C716        C717   1.404       .  A
C716        H721   1.082       .  S
C717        C718   1.416       .  A
C718        C719   1.507       .  S
C719        H723   1.110       .  S
C719        H724   1.106       .  S
C719        H725   1.110       .  S
C722        H726   1.108       .  S
C722        H727   1.110       .  S
C722        H728   1.111       .  S
C729        C730   1.415       .  A
C729        C734   1.403       .  A
C729        H736   1.083   1_556  S
C730        C731   1.418       .  A
C731        C738   1.505       .  S
C731        C732   1.396       .  A
C732        C733   1.406       .  A
C732        H737   1.082       .  S
C733        C734   1.406       .  A
C734        C735   1.507       .  S
C735        H739   1.111       .  S
C735        H740   1.107       .  S
C735        H741   1.110       .  S
C738        H742   1.102       .  S
C738        H743   1.109       .  S
C738        H744   1.111       .  S
C745        C746   1.400       .  A
C745        C750   1.399       .  A
C745        H752   1.083       .  S
C746        C747   1.412       .  A
C747        C754   1.508       .  S
C747        C748   1.400       .  A
C748        C749   1.401       .  A
C748        H753   1.085       .  S
C749        C750   1.412       .  A
C750        C751   1.508       .  S
C751        H755   1.111       .  S
C751        H756   1.111       .  S
C751        H757   1.109       .  S
C754        H758   1.110   1_556  S
C754        H759   1.106   1_556  S
C754        H760   1.111   1_556  S
