geometry optimzed in LAMMPS
_audit_creation_date              2020-11-30 
_audit_creation_method            'lammps2cif' 
_symmetry_space_group_name_H-M    'P1' 
_symmetry_Int_Tables_number       1 
_symmetry_cell_setting            triclinic 
loop_ 
_symmetry_equiv_pos_as_xyz 
  x,y,z 
_cell_length_a                    37.60654322 
_cell_length_b                    37.803758533460545 
_cell_length_c                    26.24901055224108 
_cell_angle_alpha                 90.21985346981268 
_cell_angle_beta                  89.27399935517434 
_cell_angle_gamma                 88.84749682677369 
loop_ 
_atom_site_label 
_atom_site_type_symbol 
_atom_site_fract_x 
_atom_site_fract_y 
_atom_site_fract_z 
_atom_site_charge 
N1          N  0.66241582  0.94817629  0.39817399    -0.26700
N2          N  0.69187133  0.94542267  0.42492862    -0.34600
C3          C  0.72012188  0.94623321  0.39312320     0.01600
C4          C  0.70815417  0.94910463  0.34368460     0.07700
C5          C  0.67135576  0.95060512  0.34834024    -0.05400
H6          H  0.74742554  0.94761183  0.40536760     0.08300
H7          H  0.65270096  0.95633894  0.31829970     0.09500
Cu8        Cu  0.69291444  0.94631126  0.50387909     0.44200
Cu9        Cu  0.61225717  0.95410698  0.43298844     0.42000
Cu10       Cu  0.61081183  0.95765756  0.07418049     0.43900
N11         N  0.69046625  0.95004459  0.08266716    -0.34100
N12         N  0.66057180  0.95414229  0.10930812    -0.28300
C13         C  0.66876079  0.95802854  0.15898083    -0.04400
C14         C  0.70548000  0.95595754  0.16346251     0.07800
C15         C  0.71823740  0.95135339  0.11429294     0.01600
H16         H  0.64963481  0.96398742  0.18909113     0.09200
H17         H  0.74585003  0.95082940  0.10207138     0.08300
N18         N  0.56557868  0.96188734  0.02835214    -0.35500
N19         N  0.56616474  0.96092535  0.47785956    -0.27700
C20         C  0.53266926  0.96535358  0.46089903    -0.03000
C21         C  0.50982159  0.96919749  0.00247436     0.05600
C22         C  0.53165531  0.96679883  0.04453675     0.03700
H23         H  0.52552038  0.96594364  0.42111443     0.08800
H24         H  0.52352782  0.96892816  0.08418026     0.07700
C25         C  0.76826968  0.00263031  0.25467250     0.87100
C26         C  0.74302730  0.99809168  0.20968806    -0.53200
C27         C  0.72711950  0.96600660  0.20757951     0.10000
C28         C  0.73786271  0.94069172  0.25096519     0.20900
C29         C  0.74576024  0.99377786  0.30235374    -0.53900
C30         C  0.72958707  0.96182926  0.30018627     0.10100
C31         C  0.79443194  0.97096025  0.25056170    -0.53400
C32         C  0.77899811  0.93862506  0.24785743     0.10700
H33         H  0.73896607  0.01826138  0.18084531     0.15200
H34         H  0.72503552  0.91451515  0.24918725     0.00900
H35         H  0.74358855  0.00955810  0.33662685     0.15500
H36         H  0.82311790  0.97390652  0.25007301     0.15300
C37         C  0.20799285  0.06723158  0.25717132     0.87100
C38         C  0.23212185  0.06403473  0.30344879    -0.53200
C39         C  0.25484253  0.03537686  0.30277280     0.10000
C40         C  0.25134931  0.01178375  0.25497822     0.20900
C41         C  0.23344411  0.06579278  0.21064047    -0.53900
C42         C  0.25619302  0.03701420  0.20928899     0.10100
C43         C  0.18923748  0.03161580  0.25396477    -0.53400
C44         C  0.21139881  0.00266800  0.25357954     0.10700
H45         H  0.23088136  0.08293326  0.33472967     0.15200
H46         H  0.26938163  0.98815545  0.25419300     0.00900
H47         H  0.23224089  0.08394528  0.17900657     0.15500
H48         H  0.16051403  0.02933672  0.25228193     0.15300
N49         N  0.32259071  0.01271173  0.11020486    -0.26700
N50         N  0.29717139  0.02781380  0.08312925    -0.34600
C51         C  0.27039367  0.03837017  0.11413921     0.01600
C52         C  0.27883058  0.02932661  0.16359044     0.07700
C53         C  0.31217419  0.01282589  0.15979820    -0.05400
H54         H  0.24612884  0.05113492  0.10131654     0.08300
H55         H  0.32792355  0.00248399  0.19077290     0.09500
Cu56       Cu  0.29836223  0.03131600  0.00469093     0.44200
Cu57       Cu  0.36998181  0.99521979  0.07434770     0.42000
Cu58       Cu  0.37155708  0.99835097  0.43038389     0.43900
N59         N  0.29685234  0.02681973  0.42638647    -0.34100
N60         N  0.32298083  0.01358400  0.39760745    -0.28300
C61         C  0.31217718  0.01335191  0.34855948    -0.04400
C62         C  0.27777479  0.02751406  0.34704115     0.07800
C63         C  0.26917208  0.03564188  0.39708733     0.01600
H64         H  0.32838673  0.00459084  0.31644451     0.09200
H65         H  0.24437844  0.04706594  0.41137941     0.08300
N66         N  0.41550318  0.98694641  0.47674226    -0.35500
N67         N  0.41478858  0.98561635  0.02727947    -0.27700
C68         C  0.44799406  0.97868554  0.04381753    -0.03000
C69         C  0.47077544  0.97550292  0.00211135     0.05600
C70         C  0.44921676  0.98084703  0.46028257     0.03700
H71         H  0.45511764  0.97668857  0.08351250     0.08800
H72         H  0.45753784  0.98091996  0.42062766     0.07700
N73         N  0.01348355  0.67057753  0.10801613    -0.26700
N74         N  0.02554935  0.69677342  0.07999189    -0.34600
C75         C  0.03175886  0.72466115  0.11002071     0.01600
C76         C  0.02313884  0.71602640  0.15979738     0.07700
C77         C  0.01140248  0.68142888  0.15720665    -0.05400
H78         H  0.04163946  0.74960366  0.09632160     0.08300
H79         H  0.00306378  0.66512286  0.18874173     0.09500
Cu80       Cu  0.03152988  0.69468477  0.00159804     0.44200
Cu81       Cu  0.00282946  0.62181755  0.07417112     0.42000
Cu82       Cu  0.00221548  0.62115072  0.43021220     0.43900
N83         N  0.02746872  0.69544365  0.42312231    -0.34100
N84         N  0.01457266  0.66944062  0.39563375    -0.28300
C85         C  0.01284460  0.68010574  0.34648030    -0.04400
C86         C  0.02586782  0.71424591  0.34336383     0.07800
C87         C  0.03480589  0.72284246  0.39275289     0.01600
H88         H  0.00347359  0.66409875  0.31535401     0.09200
H89         H  0.04507033  0.74770388  0.40604508     0.08300
N90         N  0.99801167  0.57656168  0.47736009    -0.35500
N91         N  0.99840012  0.57689442  0.02791937    -0.27700
C92         C  0.99700979  0.54334593  0.04486189    -0.03000
C93         C  0.99573309  0.52074740  0.00336329     0.05600
C94         C  0.99633647  0.54272384  0.46126157     0.03700
H95         H  0.99747398  0.53593863  0.08465342     0.08800
H96         H  0.99619693  0.53468003  0.42164686     0.07700
C97         C  0.05399356  0.78831247  0.25228507     0.87100
C98         C  0.05586907  0.76281721  0.29741085    -0.53200
C99         C  0.03005260  0.73781509  0.29856028     0.10000
C100        C  0.00428230  0.74025061  0.25316599     0.20900
C101        C  0.05377437  0.76435198  0.20465540    -0.53900
C102        C  0.02829436  0.73906470  0.20501752     0.10100
C103        C  0.01576839  0.80359939  0.25428410    -0.53400
C104        C  0.98976183  0.77885647  0.25505732     0.10700
H105        H  0.07566714  0.76512072  0.32694708     0.15200
H106        H  0.98309688  0.72020422  0.25366851     0.00900
H107        H  0.07026561  0.76806050  0.17129088     0.15500
H108        H  0.00963868  0.83180599  0.25438366     0.15300
N109        N  0.97172885  0.33274045  0.39960345    -0.26700
N110        N  0.95915001  0.30680179  0.42763573    -0.34600
C111        C  0.94991624  0.27991742  0.39735098     0.01600
C112        C  0.95743323  0.28892381  0.34747670     0.07700
C113        C  0.97150426  0.32259532  0.35016432    -0.05400
H114        H  0.93969143  0.25507606  0.41088849     0.07100
H115        H  0.98050485  0.33856652  0.31862069     0.09500
Cu116      Cu  0.95857267  0.30771586  0.50607333     0.44200
Cu117      Cu  0.98636478  0.38032859  0.43387600     0.42000
Cu118      Cu  0.98779918  0.38176829  0.07765775     0.43900
N119        N  0.96472450  0.30688486  0.08389862    -0.34100
N120        N  0.97625881  0.33336233  0.11174159    -0.28300
C121        C  0.97636835  0.32328111  0.16118867    -0.04400
C122        C  0.96384822  0.28898691  0.16391038     0.07800
C123        C  0.95706260  0.27961669  0.11412449     0.01600
H124        H  0.98349468  0.34005470  0.19278745     0.09200
H125        H  0.94685834  0.25479403  0.10059870     0.08300
N126        N  0.99224612  0.42594927  0.03024955    -0.35500
N127        N  0.99190858  0.42541886  0.47970098    -0.27700
C128        C  0.99350193  0.45892431  0.46257946    -0.03000
C129        C  0.99481928  0.48163432  0.00398038     0.05600
C130        C  0.99404909  0.45978918  0.04618208     0.03700
H131        H  0.99298592  0.46624630  0.42276268     0.08800
H132        H  0.99409460  0.46791912  0.08576681     0.07700
C133        C  0.92819643  0.21729408  0.25307384     0.87100
C134        C  0.92637404  0.24150688  0.30019793    -0.53200
C135        C  0.95275683  0.26592037  0.30234055     0.10000
C136        C  0.97903431  0.26397262  0.25682611     0.20900
C137        C  0.92948660  0.24254806  0.20728698    -0.53900
C138        C  0.95584947  0.26689547  0.20896635     0.10100
C139        C  0.96597579  0.20114522  0.25326468    -0.53400
C140        C  0.99240411  0.22515386  0.25605999     0.10700
H141        H  0.90630072  0.23889492  0.32998722     0.15200
H142        H  0.00080871  0.28335116  0.25835089     0.00900
H143        H  0.91349700  0.23997395  0.17371392     0.15500
H144        H  0.97156488  0.17285676  0.25113386     0.15300
C145        C  0.12566307  0.12169318  0.30045794     0.13300
C146        C  0.12630592  0.15092422  0.26780471     0.00200
C147        C  0.15600384  0.15553721  0.23589816     0.15200
C148        C  0.18355890  0.13007121  0.23379774     0.24600
C149        C  0.18137608  0.09854064  0.26258816    -0.41700
C150        C  0.15314125  0.09620827  0.29863473     0.31600
C151        C  0.09466175  0.17467071  0.26348697     0.00300
F152        F  0.15815787  0.18482236  0.20631622    -0.14000
F153        F  0.15143050  0.06844403  0.33122150    -0.14600
C154        C  0.08157470  0.19454989  0.30539003     0.15200
C155        C  0.04939445  0.21379968  0.30181902     0.24600
C156        C  0.02995374  0.21308390  0.25649469    -0.41700
C157        C  0.04377612  0.19437986  0.21417551     0.31600
C158        C  0.07585898  0.17539391  0.21758056     0.13300
F159        F  0.09933400  0.19431225  0.35010122    -0.14000
F160        F  0.02502899  0.19288386  0.17036365    -0.14600
F161        F  0.03600686  0.23105126  0.34351061    -0.16800
F162        F  0.08740802  0.15573381  0.17701563    -0.15400
F163        F  0.09748018  0.11681227  0.33234727    -0.15400
F164        F  0.21263829  0.13763797  0.20525463    -0.16800
C165        C  0.15501469  0.92659957  0.21185980     0.13300
C166        C  0.15422042  0.90558406  0.25594749     0.00200
C167        C  0.17547186  0.91493519  0.29749909     0.15200
C168        C  0.19652671  0.94521211  0.29530140     0.24600
C169        C  0.19636021  0.96671777  0.25177308    -0.41700
C170        C  0.17573238  0.95692435  0.20990490     0.31600
C171        C  0.13087766  0.87424277  0.25809745     0.00300
F172        F  0.17537366  0.89505754  0.34045127    -0.14000
F173        F  0.17457319  0.97765703  0.16779295    -0.14600
C174        C  0.13603992  0.84643642  0.22317340     0.15200
C175        C  0.11296720  0.81781686  0.22234334     0.24600
C176        C  0.08260048  0.81707518  0.25500553    -0.41700
C177        C  0.07936918  0.84390446  0.29274283     0.31600
C178        C  0.10293020  0.87223254  0.29388628     0.13300
F179        F  0.16412559  0.84666857  0.19014769    -0.14000
F180        F  0.05300725  0.84294943  0.32853164    -0.14600
F181        F  0.12237408  0.79027745  0.19160191    -0.16800
F182        F  0.09772407  0.89830620  0.32906947    -0.15400
F183        F  0.13435660  0.91863743  0.17149926    -0.15400
F184        F  0.21540517  0.95470673  0.33673908    -0.16800
C185        C  0.85477947  0.87708361  0.20662303     0.13300
C186        C  0.85377179  0.85071803  0.24426181     0.00200
C187        C  0.82492664  0.85093048  0.27915778     0.15200
C188        C  0.79886878  0.87818553  0.27827044     0.24600
C189        C  0.80133867  0.90572484  0.24262278    -0.41700
C190        C  0.82884756  0.90414731  0.20573388     0.31600
C191        C  0.88498811  0.82604181  0.25029163     0.00300
F192        F  0.82276127  0.82546370  0.31531635    -0.14000
F193        F  0.83150282  0.92986436  0.16997052    -0.14600
C194        C  0.90487681  0.82693187  0.29534947     0.15200
C195        C  0.93788747  0.80920358  0.29809821     0.24600
C196        C  0.95160459  0.78993043  0.25613009    -0.41700
C197        C  0.93085462  0.78705270  0.21222587     0.31600
C198        C  0.89784741  0.80504075  0.20924207     0.13300
F199        F  0.89368854  0.84727995  0.33539690    -0.14000
F200        F  0.94376015  0.76907643  0.17087493    -0.14600
F201        F  0.95750628  0.81248153  0.34087082    -0.16800
F202        F  0.87917682  0.80328150  0.16540623    -0.15400
F203        F  0.88235283  0.87813989  0.17279416    -0.15400
F204        F  0.77277760  0.87901677  0.31448925    -0.16800
C205        C  0.88050051  0.13138102  0.28639800     0.13300
C206        C  0.85334300  0.13027046  0.25051892     0.00200
C207        C  0.84799784  0.15905157  0.21796149     0.15200
C208        C  0.87028317  0.18827044  0.21999740     0.24600
C209        C  0.89966625  0.18858210  0.25349255    -0.41700
C210        C  0.90298527  0.16032819  0.28850954     0.31600
C211        C  0.82949903  0.09971547  0.24919740     0.00300
F212        F  0.82051569  0.15922362  0.18488606    -0.14000
F213        F  0.92856218  0.16036942  0.32457542    -0.14600
C214        C  0.80331798  0.09599959  0.28700516     0.15200
C215        C  0.78210671  0.06602174  0.28839438     0.24600
C216        C  0.78757884  0.03816309  0.25256195    -0.41700
C217        C  0.81242018  0.04366097  0.21241099     0.31600
C218        C  0.83329677  0.07387902  0.21109537     0.13300
F219        F  0.79811134  0.12178851  0.32264035    -0.14000
F220        F  0.81708529  0.01924312  0.17468375    -0.14600
F221        F  0.75553145  0.06590471  0.32358405    -0.16800
F222        F  0.85792969  0.07747311  0.17329511    -0.15400
F223        F  0.88553645  0.10403489  0.31908892    -0.15400
F224        F  0.86106507  0.21664613  0.19138879    -0.16800
N225        N  0.66241545  0.94817461  0.89817425    -0.26700
N226        N  0.69187099  0.94542005  0.92492865    -0.34600
C227        C  0.72012147  0.94623037  0.89312307     0.01600
C228        C  0.70815368  0.94910267  0.84368459     0.07700
C229        C  0.67135529  0.95060391  0.84834054    -0.05400
H230        H  0.74742521  0.94760853  0.90536737     0.08300
H231        H  0.65270053  0.95633871  0.81830033     0.09500
Cu232      Cu  0.69291430  0.94630851  0.00387911     0.44200
Cu233      Cu  0.61225702  0.95410612  0.93298908     0.42000
Cu234      Cu  0.61081182  0.95765840  0.57418002     0.43900
N235        N  0.69046621  0.95004633  0.58266721    -0.34100
N236        N  0.66057163  0.95414333  0.60930805    -0.28300
C237        C  0.66876039  0.95802894  0.65898095    -0.04400
C238        C  0.70547960  0.95595819  0.66346287     0.07800
C239        C  0.71823720  0.95135491  0.61429327     0.01600
H240        H  0.64963426  0.96398720  0.68909124     0.09200
H241        H  0.74584997  0.95083136  0.60207187     0.08300
N242        N  0.56557875  0.96188778  0.52835152    -0.35500
N243        N  0.56616467  0.96092492  0.97786019    -0.27700
C244        C  0.53266922  0.96535336  0.96089962    -0.03000
C245        C  0.50982162  0.96919758  0.50247380     0.05600
C246        C  0.53165537  0.96679906  0.54453614     0.03700
H247        H  0.52552037  0.96594340  0.92111501     0.08800
H248        H  0.52352789  0.96892839  0.58417970     0.07700
C249        C  0.76826842  0.00263070  0.75467441     0.87100
C250        C  0.74302594  0.99809233  0.70968997    -0.53200
C251        C  0.72711883  0.96600694  0.70758029     0.10000
C252        C  0.73786259  0.94069156  0.75096510     0.20900
C253        C  0.74575906  0.99377711  0.80235530    -0.53900
C254        C  0.72958659  0.96182819  0.80018685     0.10100
C255        C  0.79443121  0.97096115  0.75056235    -0.53400
C256        C  0.77899802  0.93862568  0.74785725     0.10700
H257        H  0.73896422  0.01826243  0.68084793     0.15200
H258        H  0.72503589  0.91451477  0.74918633     0.00900
H259        H  0.74358630  0.00955694  0.83662872     0.15500
H260        H  0.82311712  0.97390804  0.75007345     0.15300
C261        C  0.20799264  0.06723129  0.75717160     0.87100
C262        C  0.23212156  0.06403427  0.80344914    -0.53200
C263        C  0.25484239  0.03537650  0.80277287     0.10000
C264        C  0.25134938  0.01178367  0.75497798     0.20900
C265        C  0.23344401  0.06579292  0.71064084    -0.53900
C266        C  0.25619306  0.03701444  0.70928908     0.10100
C267        C  0.18923746  0.03161544  0.75396447    -0.53400
C268        C  0.21139892  0.00266775  0.75357901     0.10700
H269        H  0.23088093  0.08293258  0.83473019     0.15200
H270        H  0.26938181  0.98815546  0.75419255     0.00900
H271        H  0.23224078  0.08394567  0.67900718     0.15500
H272        H  0.16051404  0.02933624  0.75228151     0.15300
N273        N  0.32259093  0.01271245  0.61020490    -0.26700
N274        N  0.29717156  0.02781450  0.58312932    -0.34600
C275        C  0.27039383  0.03837080  0.61413932     0.01600
C276        C  0.27883076  0.02932719  0.66359053     0.07700
C277        C  0.31217440  0.01282654  0.65979823    -0.05400
H278        H  0.24612891  0.05113545  0.60131667     0.08300
H279        H  0.32792378  0.00248452  0.69077295     0.09500
Cu280      Cu  0.29836227  0.03131653  0.50469096     0.44200
Cu281      Cu  0.36998202  0.99522044  0.57434767     0.42000
Cu282      Cu  0.37155715  0.99835086  0.93038387     0.43900
N283        N  0.29685228  0.02681926  0.92638648    -0.34100
N284        N  0.32298082  0.01358370  0.89760740    -0.28300
C285        C  0.31217714  0.01335162  0.84855942    -0.04400
C286        C  0.27777468  0.02751362  0.84704118     0.07800
C287        C  0.26917197  0.03564131  0.89708739     0.01600
H288        H  0.32838669  0.00459072  0.81644447     0.09200
H289        H  0.24437826  0.04706527  0.91137956     0.08300
N290        N  0.41550320  0.98694635  0.97674243    -0.35500
N291        N  0.41478869  0.98561662  0.52727929    -0.27700
C292        C  0.44799420  0.97868578  0.54381722    -0.03000
C293        C  0.47077546  0.97550294  0.50211093     0.05600
C294        C  0.44921683  0.98084712  0.96028294     0.03700
H295        H  0.45511788  0.97668898  0.58351211     0.08800
H296        H  0.45753806  0.98092019  0.92062785     0.07700
N297        N  0.01348316  0.67057717  0.60801579    -0.26700
N298        N  0.02554997  0.69677263  0.57999160    -0.34600
C299        C  0.03176001  0.72466024  0.61002038     0.01600
C300        C  0.02313930  0.71602587  0.65979696     0.07700
C301        C  0.01140197  0.68142871  0.65720620    -0.05400
H302        H  0.04164134  0.74960250  0.59632121     0.08300
H303        H  0.00306242  0.66512300  0.68874128     0.09500
Cu304      Cu  0.03153086  0.69468368  0.50159786     0.44200
Cu305      Cu  0.00282785  0.62181752  0.57417076     0.42000
Cu306      Cu  0.00221712  0.62115072  0.93021245     0.43900
N307        N  0.02746805  0.69544444  0.92312240    -0.34100
N308        N  0.01457305  0.66944086  0.89563380    -0.28300
C309        C  0.01284522  0.68010566  0.84648020    -0.04400
C310        C  0.02586747  0.71424620  0.84336366     0.07800
C311        C  0.03480473  0.72284328  0.89275284     0.01600
H312        H  0.00347516  0.66409812  0.81535374     0.09200
H313        H  0.04506853  0.74770512  0.90604498     0.08300
N314        N  0.99801380  0.57656168  0.97736039    -0.35500
N315        N  0.99839801  0.57689444  0.52791905    -0.27700
C316        C  0.99700760  0.54334596  0.54486166    -0.03000
C317        C  0.99573085  0.52074742  0.50336306     0.05600
C318        C  0.99633868  0.54272385  0.96126183     0.03700
H319        H  0.99747192  0.53593872  0.58465297     0.08800
H320        H  0.99619905  0.53468007  0.92164712     0.07700
C321        C  0.05399405  0.78831209  0.75228439     0.87100
C322        C  0.05586918  0.76281704  0.79741042    -0.53200
C323        C  0.03005258  0.73781507  0.79855984     0.10000
C324        C  0.00428250  0.74025053  0.75316526     0.20900
C325        C  0.05377497  0.76435138  0.70465497    -0.53900
C326        C  0.02829479  0.73906427  0.70501702     0.10100
C327        C  0.01576896  0.80359923  0.75428288    -0.53400
C328        C  0.98976225  0.77885648  0.75505605     0.10700
H329        H  0.07566712  0.76512058  0.82694691     0.15200
H330        H  0.98309695  0.72020426  0.75366778     0.00900
H331        H  0.07026646  0.76805963  0.67129055     0.15500
H332        H  0.00963939  0.83180591  0.75438215     0.15300
N333        N  0.97172706  0.33274126  0.89960356    -0.26700
N334        N  0.95914601  0.30680356  0.92763561    -0.34600
C335        C  0.94991196  0.27991928  0.89735082     0.01600
C336        C  0.95743109  0.28892476  0.84747679     0.07700
C337        C  0.97150361  0.32259561  0.85016461    -0.05400
H338        H  0.93968579  0.25507857  0.91088820     0.07100
H339        H  0.98050621  0.33856592  0.81862128     0.09500
Cu340      Cu  0.95856700  0.30771815  0.00607327     0.44200
Cu341      Cu  0.98636476  0.38032885  0.93387598     0.42000
Cu342      Cu  0.98779902  0.38176822  0.57765809     0.43900
N343        N  0.96472907  0.30688323  0.58389883    -0.34100
N344        N  0.97626087  0.33336171  0.61174208    -0.28300
C345        C  0.97636917  0.32328106  0.66118946    -0.04400
C346        C  0.96385086  0.28898614  0.66391091     0.07800
C347        C  0.95706762  0.27961496  0.61412474     0.01600
H348        H  0.98349298  0.34005547  0.69278835     0.09200
H349        H  0.94686471  0.25479164  0.60059883     0.08300
N350        N  0.99224490  0.42594924  0.53024962    -0.35500
N351        N  0.99190971  0.42541897  0.97970090    -0.27700
C352        C  0.99350354  0.45892441  0.96257950    -0.03000
C353        C  0.99481728  0.48163432  0.50398027     0.05600
C354        C  0.99404734  0.45978923  0.54618207     0.03700
H355        H  0.99298745  0.46624648  0.92276270     0.08800
H356        H  0.99409281  0.46791920  0.58576660     0.07700
C357        C  0.92819570  0.21729453  0.75307358     0.87100
C358        C  0.92637246  0.24150779  0.80019719    -0.53200
C359        C  0.95275557  0.26592088  0.80234084     0.10000
C360        C  0.97903414  0.26397240  0.75682775     0.20900
C361        C  0.92948734  0.24254822  0.70728639    -0.53900
C362        C  0.95585054  0.26689525  0.70896684     0.10100
C363        C  0.96597482  0.20114517  0.75326669    -0.53400
C364        C  0.99240340  0.22515348  0.75606283     0.10700
H365        H  0.90629829  0.23889640  0.82998548     0.15200
H366        H  0.00080880  0.28335063  0.75835326     0.00900
H367        H  0.91349863  0.23997440  0.67371259     0.15500
H368        H  0.97156353  0.17285663  0.75113658     0.15300
C369        C  0.12566247  0.12169201  0.80045891     0.13300
C370        C  0.12630522  0.15092343  0.76780638     0.00200
C371        C  0.15600320  0.15553690  0.73590005     0.15200
C372        C  0.18355835  0.13007100  0.73379908     0.24600
C373        C  0.18137566  0.09854014  0.76258885    -0.41700
C374        C  0.15314079  0.09620727  0.79863527     0.31600
C375        C  0.09466099  0.17466999  0.76348940     0.00300
F376        F  0.15815723  0.18482245  0.70631892    -0.14000
F377        F  0.15143014  0.06844273  0.83122150    -0.14600
C378        C  0.08157311  0.19454744  0.80539367     0.15200
C379        C  0.04939281  0.21379717  0.80182317     0.24600
C380        C  0.02995289  0.21308315  0.75649808    -0.41700
C381        C  0.04377598  0.19438079  0.71417787     0.31600
C382        C  0.07585890  0.17539488  0.71758241     0.13300
F383        F  0.09933170  0.19430817  0.85010546    -0.14000
F384        F  0.02502951  0.19288641  0.67036529    -0.14600
F385        F  0.03600447  0.23104708  0.84351570    -0.16800
F386        F  0.08740864  0.15573641  0.67701623    -0.15400
F387        F  0.09747953  0.11681054  0.83234796    -0.15400
F388        F  0.21263772  0.13763812  0.70525614    -0.16800
C389        C  0.15501475  0.92659934  0.71185933     0.13300
C390        C  0.15422081  0.90558367  0.75594685     0.00200
C391        C  0.17547250  0.91493466  0.79749825     0.15200
C392        C  0.19652728  0.94521162  0.79530053     0.24600
C393        C  0.19636045  0.96671747  0.75177240    -0.41700
C394        C  0.17573233  0.95692420  0.70990443     0.31600
C395        C  0.13087815  0.87424233  0.75809685     0.00300
F396        F  0.17537457  0.89505686  0.84045028    -0.14000
F397        F  0.17457276  0.97765709  0.66779270    -0.14600
C398        C  0.13604043  0.84643601  0.72317277     0.15200
C399        C  0.11296777  0.81781641  0.72234272     0.24600
C400        C  0.08260106  0.81707469  0.75500493    -0.41700
C401        C  0.07936974  0.84390395  0.79274226     0.31600
C402        C  0.10293074  0.87223204  0.79388574     0.13300
F403        F  0.16412606  0.84666825  0.69014698    -0.14000
F404        F  0.05300778  0.84294890  0.82853104    -0.14600
F405        F  0.12237469  0.79027703  0.69160128    -0.16800
F406        F  0.09772461  0.89830566  0.82906897    -0.15400
F407        F  0.13435643  0.91863730  0.67149899    -0.15400
F408        F  0.21540598  0.95470611  0.83673804    -0.16800
C409        C  0.85478070  0.87708578  0.70662268     0.13300
C410        C  0.85377284  0.85071948  0.74426042     0.00200
C411        C  0.82492731  0.85093107  0.77915572     0.15200
C412        C  0.79886920  0.87818591  0.77826876     0.24600
C413        C  0.80133917  0.90572586  0.74262212    -0.41700
C414        C  0.82884850  0.90414923  0.70573385     0.31600
C415        C  0.88498910  0.82604303  0.75028967     0.00300
F416        F  0.82276168  0.82546356  0.81531318    -0.14000
F417        F  0.83150381  0.92986682  0.66997133    -0.14600
C418        C  0.90487705  0.82693148  0.79534831     0.15200
C419        C  0.93788747  0.80920272  0.79809712     0.24600
C420        C  0.95160509  0.78993070  0.75612826    -0.41700
C421        C  0.93085590  0.78705466  0.71222304     0.31600
C422        C  0.89784893  0.80504314  0.70923919     0.13300
F423        F  0.89368831  0.84727841  0.83539668    -0.14000
F424        F  0.94376198  0.76907955  0.67087140    -0.14600
F425        F  0.95750561  0.81247912  0.84087064    -0.16800
F426        F  0.87917910  0.80328542  0.66540254    -0.15400
F427        F  0.88235440  0.87814293  0.67279448    -0.15400
F428        F  0.77277761  0.87901623  0.81448697    -0.16800
C429        C  0.88049773  0.13138336  0.78640134     0.13300
C430        C  0.85334200  0.13027094  0.75051962     0.00200
C431        C  0.84799883  0.15905023  0.71795821     0.15200
C432        C  0.87028416  0.18826916  0.71999324     0.24600
C433        C  0.89966534  0.18858268  0.75349174    -0.41700
C434        C  0.90298257  0.16033049  0.78851190     0.31600
C435        C  0.82949786  0.09971596  0.74919905     0.00300
F436        F  0.82051843  0.15922063  0.68487985    -0.14000
F437        F  0.92855800  0.16037330  0.82457991    -0.14600
C438        C  0.80331960  0.09599849  0.78701043     0.15200
C439        C  0.78210823  0.06602073  0.78840025     0.24600
C440        C  0.78757740  0.03816365  0.75256445    -0.41700
C441        C  0.81241628  0.04366290  0.71241079     0.31600
C442        C  0.83329276  0.07388102  0.71109442     0.13300
F443        F  0.79811571  0.12178585  0.82264867    -0.14000
F444        F  0.81707925  0.01924615  0.67468162    -0.14600
F445        F  0.75553618  0.06590220  0.82359475    -0.16800
F446        F  0.85792311  0.07747643  0.67329103    -0.15400
F447        F  0.88553208  0.10403889  0.81909560    -0.15400
F448        F  0.86106774  0.21664306  0.69138003    -0.16800
loop_ 
_geom_bond_atom_site_label_1 
_geom_bond_atom_site_label_2 
_geom_bond_distance 
_geom_bond_site_symmetry_2 
_ccdc_geom_bond_type 
N1            N2   1.322       .  A
N1            C5   1.350       .  A
N1           Cu9   2.093       .  S
N2            C3   1.344       .  A
N2           Cu8   2.073       .  S
C3            C4   1.383       .  A
C3            H6   1.082       .  S
C4            C5   1.388       .  A
C4           C30   1.477       .  S
C5            H7   1.082       .  S
Cu8         N235   2.073       .  S
Cu9          N19   2.094       .  S
Cu10         N12   2.099       .  S
Cu10         N18   2.100       .  S
N11          N12   1.323       .  A
N11          C15   1.344       .  A
N11        Cu232   2.073       .  S
N12          C13   1.352       .  A
C13          C14   1.388       .  A
C13          H16   1.082       .  S
C14          C15   1.380       .  A
C14          C27   1.477       .  S
C15          H17   1.083       .  S
N18         N243   1.326   1_554  A
N18          C22   1.349       .  A
N19         N242   1.326       .  A
N19          C20   1.349       .  A
C20         C245   1.386       .  A
C20          H23   1.082       .  S
C21          C22   1.386       .  A
C21         C244   1.386   1_554  A
C21          C69   1.483       .  S
C22          H24   1.083       .  S
C25          C26   1.536   1_545  S
C25          C31   1.537   1_545  S
C25          C29   1.544   1_545  S
C25         C216   1.541       .  S
C26          H33   1.087   1_565  S
C26          C27   1.364       .  D
C27          C28   1.543       .  S
C28          C32   1.548       .  S
C28          C30   1.542       .  S
C28          H34   1.111       .  S
C29          H35   1.079   1_565  S
C29          C30   1.364       .  D
C31          H36   1.087       .  S
C31          C32   1.366       .  D
C32         C189   1.492       .  S
C37          C38   1.529       .  S
C37          C43   1.535       .  S
C37          C41   1.542       .  S
C37         C149   1.540       .  S
C38          H45   1.086       .  S
C38          C39   1.366       .  D
C39          C62   1.483       .  S
C39          C40   1.545       .  S
C40          C44   1.549       .  S
C40          C42   1.546       .  S
C40          H46   1.111   1_545  S
C41          H47   1.080       .  S
C41          C42   1.370       .  D
C42          C52   1.486       .  S
C43          H48   1.087       .  S
C43          C44   1.362       .  D
C44         C169   1.483   1_545  S
N49          N50   1.320       .  A
N49          C53   1.355       .  A
N49         Cu57   2.099   1_545  S
N50          C51   1.340       .  A
N50         Cu56   2.064       .  S
C51          C52   1.383       .  A
C51          H54   1.082       .  S
C52          C53   1.392       .  A
C53          H55   1.082       .  S
Cu56        N283   2.063   1_554  S
Cu57         N67   2.102       .  S
Cu58         N60   2.100   1_565  S
Cu58         N66   2.103       .  S
N59          N60   1.321       .  A
N59          C63   1.340       .  A
N59        Cu280   2.063       .  S
N60          C61   1.355       .  A
C61          C62   1.391       .  A
C61          H64   1.081       .  S
C62          C63   1.381       .  A
C63          H65   1.082       .  S
N66         N291   1.328       .  A
N66          C70   1.349       .  A
N67         N290   1.328   1_554  A
N67          C68   1.348       .  A
C68          C69   1.385       .  A
C68          H71   1.082       .  S
C69         C294   1.386   1_554  A
C70         C293   1.386       .  A
C70          H72   1.083       .  S
N73          N74   1.320       .  A
N73          C77   1.354       .  A
N73         Cu81   2.091       .  S
N74          C75   1.340       .  A
N74         Cu80   2.068       .  S
C75          C76   1.384       .  A
C75          H78   1.082       .  S
C76          C77   1.390       .  A
C76         C102   1.487       .  S
C77          H79   1.081       .  S
Cu80        N307   2.068   1_554  S
Cu81         N91   2.094   1_455  S
Cu82         N84   2.100       .  S
Cu82         N90   2.102   1_455  S
N83          N84   1.321       .  A
N83          C87   1.340       .  A
N83        Cu304   2.068       .  S
N84          C85   1.355       .  A
C85          C86   1.392       .  A
C85          H88   1.082       .  S
C86          C87   1.383       .  A
C86          C99   1.487       .  S
C87          H89   1.081       .  S
N90         N315   1.327       .  A
N90          C94   1.349       .  A
N91         N314   1.327   1_554  A
N91          C92   1.347       .  A
C92          C93   1.384       .  A
C92          H95   1.083       .  S
C93         C318   1.385   1_554  A
C93         C129   1.480       .  S
C94         C317   1.385       .  A
C94          H96   1.082       .  S
C97          C98   1.531       .  S
C97         C103   1.539       .  S
C97         C101   1.541       .  S
C97         C176   1.547       .  S
C98         H105   1.086       .  S
C98          C99   1.369       .  D
C99         C100   1.547       .  S
C100        C104   1.548   1_455  S
C100        C102   1.544       .  S
C100        H106   1.111   1_455  S
C101        H107   1.078       .  S
C101        C102   1.367       .  D
C103        H108   1.086       .  S
C103        C104   1.367   1_455  D
C104        C196   1.487       .  S
N109        N110   1.320       .  A
N109        C113   1.352       .  A
N109       Cu117   2.095       .  S
N110        C111   1.342       .  A
N110       Cu116   2.059       .  S
C111        C112   1.381       .  A
C111        H114   1.082       .  S
C112        C113   1.390       .  A
C112        C135   1.481       .  S
C113        H115   1.081       .  S
Cu116       N343   2.059       .  S
Cu117       N127   2.098       .  S
Cu118       N120   2.091       .  S
Cu118       N126   2.095       .  S
N119        N120   1.321       .  A
N119        C123   1.337       .  A
N119       Cu340   2.059       .  S
N120        C121   1.354       .  A
C121        C122   1.390       .  A
C121        H124   1.082       .  S
C122        C123   1.381       .  A
C122        C138   1.482       .  S
C123        H125   1.081       .  S
N126        N351   1.327   1_554  A
N126        C130   1.348       .  A
N127        N350   1.327       .  A
N127        C128   1.348       .  A
C128        C353   1.384       .  A
C128        H131   1.083       .  S
C129        C130   1.385       .  A
C129        C352   1.384   1_554  A
C130        H132   1.082       .  S
C133        C134   1.536       .  S
C133        C139   1.535       .  S
C133        C137   1.539       .  S
C133        C209   1.541       .  S
C134        H141   1.086       .  S
C134        C135   1.370       .  D
C135        C136   1.541       .  S
C136        C140   1.542       .  S
C136        C138   1.541       .  S
C136        H142   1.111   1_655  S
C137        H143   1.078       .  S
C137        C138   1.367       .  D
C139        H144   1.087       .  S
C139        C140   1.362       .  D
C140        C156   1.475   1_655  S
C145        C146   1.401       .  A
C145        C150   1.399       .  A
C145        F163   1.358       .  S
C146        C147   1.402       .  A
C146        C151   1.482       .  S
C147        C148   1.401       .  A
C147        F152   1.358       .  S
C148        C149   1.417       .  A
C148        F164   1.354       .  S
C149        C150   1.418       .  A
C150        F153   1.359       .  S
C151        C154   1.408       .  A
C151        C158   1.405       .  A
C154        C155   1.404       .  A
C154        F159   1.358       .  S
C155        C156   1.405       .  A
C155        F161   1.358       .  S
C156        C157   1.403       .  A
C157        C158   1.395       .  A
C157        F160   1.358       .  S
C158        F162   1.358       .  S
C165        C166   1.407       .  A
C165        C170   1.400       .  A
C165        F183   1.358       .  S
C166        C167   1.408       .  A
C166        C171   1.490       .  S
C167        C168   1.406       .  A
C167        F172   1.357       .  S
C168        C169   1.405       .  A
C168        F184   1.357       .  S
C169        C170   1.406       .  A
C170        F173   1.358       .  S
C171        C174   1.401       .  A
C171        C178   1.404       .  A
C174        C175   1.401       .  A
C174        F179   1.358       .  S
C175        C176   1.420       .  A
C175        F181   1.353       .  S
C176        C177   1.417       .  A
C177        C178   1.404       .  A
C177        F180   1.358       .  S
C178        F182   1.358       .  S
C185        C186   1.407       .  A
C185        C190   1.400       .  A
C185        F203   1.358       .  S
C186        C187   1.411       .  A
C186        C191   1.495       .  S
C187        C188   1.408       .  A
C187        F192   1.357       .  S
C188        C189   1.406       .  A
C188        F204   1.357       .  S
C189        C190   1.408       .  A
C190        F193   1.358       .  S
C191        C194   1.408       .  A
C191        C198   1.411       .  A
C194        C195   1.402       .  A
C194        F199   1.358       .  S
C195        C196   1.405       .  A
C195        F201   1.358       .  S
C196        C197   1.405       .  A
C197        C198   1.407       .  A
C197        F200   1.358       .  S
C198        F202   1.358       .  S
C205        C206   1.399       .  A
C205        C210   1.398       .  A
C205        F223   1.358       .  S
C206        C207   1.399       .  A
C206        C211   1.477       .  S
C207        C208   1.401       .  A
C207        F212   1.358       .  S
C208        C209   1.421       .  A
C208        F224   1.354       .  S
C209        C210   1.416       .  A
C210        F213   1.358       .  S
C211        C214   1.399       .  A
C211        C218   1.399       .  A
C214        C215   1.399       .  A
C214        F219   1.358       .  S
C215        C216   1.419       .  A
C215        F221   1.352       .  S
C216        C217   1.418       .  A
C217        C218   1.399       .  A
C217        F220   1.359       .  S
C218        F222   1.358       .  S
N225        N226   1.322       .  A
N225        C229   1.350       .  A
N225       Cu233   2.093       .  S
N226        C227   1.344       .  A
N226       Cu232   2.073   1_556  S
C227        C228   1.383       .  A
C227        H230   1.082       .  S
C228        C229   1.388       .  A
C228        C254   1.477       .  S
C229        H231   1.082       .  S
Cu233       N243   2.094       .  S
Cu234       N236   2.099       .  S
Cu234       N242   2.100       .  S
N235        N236   1.323       .  A
N235        C239   1.344       .  A
N236        C237   1.352       .  A
C237        C238   1.388       .  A
C237        H240   1.082       .  S
C238        C239   1.380       .  A
C238        C251   1.477       .  S
C239        H241   1.083       .  S
N242        C246   1.349       .  A
N243        C244   1.349       .  A
C244        H247   1.082       .  S
C245        C246   1.386       .  A
C245        C293   1.483       .  S
C246        H248   1.083       .  S
C249        C250   1.536   1_545  S
C249        C255   1.537   1_545  S
C249        C253   1.544   1_545  S
C249        C440   1.541       .  S
C250        H257   1.087   1_565  S
C250        C251   1.364       .  D
C251        C252   1.543       .  S
C252        C256   1.548       .  S
C252        C254   1.542       .  S
C252        H258   1.111       .  S
C253        H259   1.079   1_565  S
C253        C254   1.364       .  D
C255        H260   1.087       .  S
C255        C256   1.366       .  D
C256        C413   1.492       .  S
C261        C262   1.529       .  S
C261        C267   1.535       .  S
C261        C265   1.542       .  S
C261        C373   1.540       .  S
C262        H269   1.086       .  S
C262        C263   1.366       .  D
C263        C286   1.483       .  S
C263        C264   1.545       .  S
C264        C268   1.549       .  S
C264        C266   1.546       .  S
C264        H270   1.111   1_545  S
C265        H271   1.080       .  S
C265        C266   1.370       .  D
C266        C276   1.486       .  S
C267        H272   1.087       .  S
C267        C268   1.362       .  D
C268        C393   1.483   1_545  S
N273        N274   1.320       .  A
N273        C277   1.355       .  A
N273       Cu281   2.099   1_545  S
N274        C275   1.340       .  A
N274       Cu280   2.064       .  S
C275        C276   1.383       .  A
C275        H278   1.082       .  S
C276        C277   1.392       .  A
C277        H279   1.082       .  S
Cu281       N291   2.102       .  S
Cu282       N284   2.100   1_565  S
Cu282       N290   2.103       .  S
N283        N284   1.321       .  A
N283        C287   1.340       .  A
N284        C285   1.355       .  A
C285        C286   1.391       .  A
C285        H288   1.081       .  S
C286        C287   1.381       .  A
C287        H289   1.082       .  S
N290        C294   1.349       .  A
N291        C292   1.348       .  A
C292        C293   1.385       .  A
C292        H295   1.082       .  S
C294        H296   1.083       .  S
N297        N298   1.320       .  A
N297        C301   1.354       .  A
N297       Cu305   2.091       .  S
N298        C299   1.340       .  A
N298       Cu304   2.068       .  S
C299        C300   1.384       .  A
C299        H302   1.082       .  S
C300        C301   1.390       .  A
C300        C326   1.487       .  S
C301        H303   1.081       .  S
Cu305       N315   2.094   1_455  S
Cu306       N308   2.100       .  S
Cu306       N314   2.102   1_455  S
N307        N308   1.321       .  A
N307        C311   1.340       .  A
N308        C309   1.355       .  A
C309        C310   1.392       .  A
C309        H312   1.082       .  S
C310        C311   1.383       .  A
C310        C323   1.487       .  S
C311        H313   1.081       .  S
N314        C318   1.349       .  A
N315        C316   1.347       .  A
C316        C317   1.384       .  A
C316        H319   1.083       .  S
C317        C353   1.480       .  S
C318        H320   1.082       .  S
C321        C322   1.531       .  S
C321        C327   1.539       .  S
C321        C325   1.541       .  S
C321        C400   1.547       .  S
C322        H329   1.086       .  S
C322        C323   1.369       .  D
C323        C324   1.547       .  S
C324        C328   1.548   1_455  S
C324        C326   1.544       .  S
C324        H330   1.111   1_455  S
C325        H331   1.078       .  S
C325        C326   1.367       .  D
C327        H332   1.086       .  S
C327        C328   1.367   1_455  D
C328        C420   1.487       .  S
N333        N334   1.320       .  A
N333        C337   1.352       .  A
N333       Cu341   2.095       .  S
N334        C335   1.342       .  A
N334       Cu340   2.059   1_556  S
C335        C336   1.381       .  A
C335        H338   1.082       .  S
C336        C337   1.390       .  A
C336        C359   1.481       .  S
C337        H339   1.081       .  S
Cu341       N351   2.098       .  S
Cu342       N344   2.091       .  S
Cu342       N350   2.095       .  S
N343        N344   1.321       .  A
N343        C347   1.337       .  A
N344        C345   1.354       .  A
C345        C346   1.390       .  A
C345        H348   1.082       .  S
C346        C347   1.381       .  A
C346        C362   1.482       .  S
C347        H349   1.081       .  S
N350        C354   1.348       .  A
N351        C352   1.348       .  A
C352        H355   1.083       .  S
C353        C354   1.385       .  A
C354        H356   1.082       .  S
C357        C358   1.536       .  S
C357        C363   1.535       .  S
C357        C361   1.539       .  S
C357        C433   1.541       .  S
C358        H365   1.086       .  S
C358        C359   1.370       .  D
C359        C360   1.541       .  S
C360        C364   1.542       .  S
C360        C362   1.541       .  S
C360        H366   1.111   1_655  S
C361        H367   1.078       .  S
C361        C362   1.367       .  D
C363        H368   1.087       .  S
C363        C364   1.362       .  D
C364        C380   1.475   1_655  S
C369        C370   1.401       .  A
C369        C374   1.399       .  A
C369        F387   1.358       .  S
C370        C371   1.402       .  A
C370        C375   1.482       .  S
C371        C372   1.401       .  A
C371        F376   1.358       .  S
C372        C373   1.417       .  A
C372        F388   1.354       .  S
C373        C374   1.418       .  A
C374        F377   1.359       .  S
C375        C378   1.408       .  A
C375        C382   1.405       .  A
C378        C379   1.404       .  A
C378        F383   1.358       .  S
C379        C380   1.405       .  A
C379        F385   1.358       .  S
C380        C381   1.403       .  A
C381        C382   1.395       .  A
C381        F384   1.358       .  S
C382        F386   1.358       .  S
C389        C390   1.407       .  A
C389        C394   1.400       .  A
C389        F407   1.358       .  S
C390        C391   1.408       .  A
C390        C395   1.490       .  S
C391        C392   1.406       .  A
C391        F396   1.357       .  S
C392        C393   1.405       .  A
C392        F408   1.357       .  S
C393        C394   1.406       .  A
C394        F397   1.358       .  S
C395        C398   1.401       .  A
C395        C402   1.404       .  A
C398        C399   1.401       .  A
C398        F403   1.358       .  S
C399        C400   1.420       .  A
C399        F405   1.353       .  S
C400        C401   1.417       .  A
C401        C402   1.404       .  A
C401        F404   1.358       .  S
C402        F406   1.358       .  S
C409        C410   1.407       .  A
C409        C414   1.400       .  A
C409        F427   1.358       .  S
C410        C411   1.411       .  A
C410        C415   1.495       .  S
C411        C412   1.408       .  A
C411        F416   1.357       .  S
C412        C413   1.406       .  A
C412        F428   1.357       .  S
C413        C414   1.408       .  A
C414        F417   1.358       .  S
C415        C418   1.408       .  A
C415        C422   1.411       .  A
C418        C419   1.402       .  A
C418        F423   1.358       .  S
C419        C420   1.405       .  A
C419        F425   1.358       .  S
C420        C421   1.405       .  A
C421        C422   1.407       .  A
C421        F424   1.358       .  S
C422        F426   1.358       .  S
C429        C430   1.399       .  A
C429        C434   1.398       .  A
C429        F447   1.358       .  S
C430        C431   1.399       .  A
C430        C435   1.477       .  S
C431        C432   1.401       .  A
C431        F436   1.358       .  S
C432        C433   1.421       .  A
C432        F448   1.354       .  S
C433        C434   1.416       .  A
C434        F437   1.358       .  S
C435        C438   1.399       .  A
C435        C442   1.399       .  A
C438        C439   1.399       .  A
C438        F443   1.358       .  S
C439        C440   1.419       .  A
C439        F445   1.352       .  S
C440        C441   1.418       .  A
C441        C442   1.399       .  A
C441        F444   1.359       .  S
C442        F446   1.358       .  S
