geometry optimzed in LAMMPS
_audit_creation_date              2020-11-30 
_audit_creation_method            'lammps2cif' 
_symmetry_space_group_name_H-M    'P1' 
_symmetry_Int_Tables_number       1 
_symmetry_cell_setting            triclinic 
loop_ 
_symmetry_equiv_pos_as_xyz 
  x,y,z 
_cell_length_a                    25.88765018 
_cell_length_b                    26.3981178695854 
_cell_length_c                    30.21317106616492 
_cell_angle_alpha                 90.14454179626897 
_cell_angle_beta                  84.94818673675498 
_cell_angle_gamma                 89.40827222846227 
loop_ 
_atom_site_label 
_atom_site_type_symbol 
_atom_site_fract_x 
_atom_site_fract_y 
_atom_site_fract_z 
_atom_site_charge 
C1          C  0.24131460  0.80061383  0.95677097     0.86200
C2          C  0.19682927  0.79309794  0.99386277    -0.54100
C3          C  0.20170308  0.75062202  0.01981830     0.09100
C4          C  0.25031863  0.71806718  0.00390306     0.20100
C5          C  0.29102881  0.79799158  0.98228405    -0.54800
C6          C  0.29518749  0.75562778  0.00792485     0.09200
C7          C  0.24410213  0.75161849  0.92965715    -0.54300
C8          C  0.24838721  0.70826507  0.95310143     0.09800
H9          H  0.16863670  0.82295580  0.00260695     0.14300
H10         H  0.25415484  0.68272386  0.02324695     0.00000
H11         H  0.32021429  0.82707622  0.98182901     0.14600
H12         H  0.24283147  0.75119259  0.89381591     0.14400
C13         C  0.26203053  0.69454567  0.44962979     0.86200
C14         C  0.31194492  0.70075958  0.47331921    -0.54100
C15         C  0.31374578  0.74361837  0.49883442     0.09100
C16         C  0.26488675  0.77845223  0.49600417     0.20100
C17         C  0.21833575  0.69966185  0.48859125    -0.54800
C18         C  0.21922207  0.74379203  0.51348293     0.09200
C19         C  0.25644699  0.74286886  0.42316768    -0.54300
C20         C  0.25854484  0.78750592  0.44534912     0.09800
H21         H  0.33984365  0.66998838  0.47509041     0.14300
H22         H  0.26643190  0.81410022  0.51490934     0.00000
H23         H  0.19250891  0.66909970  0.49840409     0.14600
H24         H  0.25265676  0.74086025  0.38781565     0.14400
C25         C  0.76982646  0.29315999  0.00901536     0.86200
C26         C  0.80952050  0.28614549  0.96771650    -0.54100
C27         C  0.80189751  0.24345888  0.94212186     0.09100
C28         C  0.75587622  0.21099426  0.96258126     0.20100
C29         C  0.71658295  0.29042167  0.98953898    -0.54800
C30         C  0.70973775  0.24849666  0.96395475     0.09200
C31         C  0.77682397  0.24340588  0.03355532    -0.54300
C32         C  0.76577857  0.20108663  0.01163858     0.09800
H33         H  0.83929256  0.31359376  0.95833765     0.14300
H34         H  0.74921241  0.17484432  0.94581563     0.00000
H35         H  0.68917158  0.32193527  0.99164434     0.14600
H36         H  0.79086473  0.24076048  0.06628441     0.14400
C37         C  0.77506866  0.20919643  0.50863025     0.86200
C38         C  0.72394897  0.21111605  0.48580153    -0.54100
C39         C  0.71815491  0.25221038  0.45900989     0.09100
C40         C  0.76335328  0.28995266  0.45968009     0.20100
C41         C  0.81761951  0.21487026  0.46935280    -0.54800
C42         C  0.81135064  0.25672282  0.44262672     0.09200
C43         C  0.77866168  0.25953583  0.53297972    -0.54300
C44         C  0.76936036  0.30145783  0.50958661     0.09800
H45         H  0.69739813  0.17946427  0.48680175     0.14300
H46         H  0.75770184  0.32470475  0.43999618     0.00000
H47         H  0.84719856  0.18626064  0.46134450     0.14600
H48         H  0.78917142  0.26313870  0.56679688     0.14400
N49         N  0.12011379  0.75145425  0.20636798    -0.03800
C50         C  0.12481119  0.71107943  0.23410533    -0.01200
C51         C  0.13323078  0.72696155  0.27639981    -0.24100
C52         C  0.12959588  0.77796860  0.27639251    -0.24300
C53         C  0.12116580  0.79282538  0.23366773    -0.01300
H54         H  0.13459539  0.70383526  0.30584565     0.12500
H55         H  0.12702577  0.80106519  0.30612911     0.12500
N56         N  0.12300139  0.75360911  0.69625795    -0.03800
C57         C  0.12397979  0.79336437  0.72552533    -0.01200
C58         C  0.14039257  0.77740801  0.76544103    -0.24100
C59         C  0.14674127  0.72635306  0.76255287    -0.24300
C60         C  0.13226121  0.71165532  0.72136266    -0.01300
H61         H  0.14302781  0.79993518  0.79502900     0.12500
H62         H  0.15334519  0.70201250  0.79034964     0.12500
N63         N  0.77373416  0.46000336  0.13792662    -0.03800
C64         C  0.80517559  0.50106103  0.13425731    -0.01200
C65         C  0.77574783  0.54486833  0.14326315    -0.24100
C66         C  0.72800222  0.52995112  0.16044894    -0.24300
C67         C  0.72792660  0.47811644  0.15760135    -0.01300
H68         H  0.79022885  0.58299775  0.14605490     0.12500
H69         H  0.69743091  0.55406911  0.17557072     0.12500
N70         N  0.75789869  0.47628440  0.62723997    -0.03800
C71         C  0.79622132  0.51038047  0.63353032    -0.01200
C72         C  0.77749267  0.55936329  0.63021143    -0.24100
C73         C  0.72576861  0.55621927  0.62592296    -0.24300
C74         C  0.71372134  0.50539554  0.62727669    -0.01300
H75         H  0.79779416  0.59393681  0.63654057     0.12500
H76         H  0.69875435  0.58788843  0.62879673     0.12500
N77         N  0.45442236  0.74100742  0.13289666    -0.03800
C78         C  0.48881228  0.70131928  0.13634532    -0.01200
C79         C  0.53828148  0.71506485  0.12047908    -0.24100
C80         C  0.53673857  0.76536378  0.11230643    -0.24300
C81         C  0.48661652  0.78174316  0.12458963    -0.01300
H82         H  0.57328175  0.69224702  0.12038212     0.12500
H83         H  0.57065192  0.78837131  0.10518886     0.12500
N84         N  0.43195074  0.73747426  0.65469011    -0.03800
C85         C  0.43439215  0.77603277  0.68507849    -0.01200
C86         C  0.44516966  0.75706417  0.72578336    -0.24100
C87         C  0.45152787  0.70623494  0.72109485    -0.24300
C88         C  0.44303194  0.69470660  0.67796130    -0.01300
H89         H  0.45173463  0.77866099  0.75517407     0.12500
H90         H  0.46210866  0.68020066  0.74645303     0.12500
N91         N  0.77030320  0.01900696  0.11717110    -0.03800
C92         C  0.81343064  0.98944422  0.11840970    -0.01200
C93         C  0.80141270  0.93912083  0.11179880    -0.24100
C94         C  0.74891240  0.93690144  0.11142788    -0.24300
C95         C  0.73046829  0.98595244  0.11747277    -0.01300
H96         H  0.82671496  0.90668142  0.11511184     0.12500
H97         H  0.72645529  0.90249881  0.11377802     0.12500
N98         N  0.75930403  0.03937907  0.63308625    -0.03800
C99         C  0.79141213  0.99826958  0.63308564    -0.01200
C100        C  0.76373181  0.95392827  0.63160228    -0.24100
C101        C  0.71274262  0.96769987  0.63380230    -0.24300
C102        C  0.71087687  0.01988502  0.63661696    -0.01300
H103        H  0.77831985  0.91567102  0.63493434     0.12500
H104        H  0.68055063  0.94193308  0.63826789     0.12500
N105        N  0.89245249  0.25598194  0.25619254    -0.03800
C106        C  0.88977418  0.29650700  0.22825895    -0.01200
C107        C  0.87765028  0.28080222  0.18678173    -0.24100
C108        C  0.87549146  0.22935471  0.18782776    -0.24300
C109        C  0.88687996  0.21436623  0.22982590    -0.01300
H110        H  0.87585952  0.30386580  0.15735460     0.12500
H111        H  0.87221170  0.20533282  0.15912555     0.12500
N112        N  0.89807632  0.25395830  0.76180468    -0.03800
C113        C  0.89469378  0.21542426  0.73188341    -0.01200
C114        C  0.87789040  0.23292539  0.69261321    -0.24100
C115        C  0.87244245  0.28393375  0.69705071    -0.24300
C116        C  0.88759873  0.29686931  0.73852239    -0.01300
H117        H  0.87294508  0.21126451  0.66282247     0.12500
H118        H  0.86453469  0.30945168  0.67039709     0.12500
Zr119      Zr  0.04474388  0.94577711  0.29296381     2.17500
O120        O  0.02715659  0.87520734  0.34379787    -0.51600
O121        O  0.12934202  0.95993675  0.32053490    -0.74800
O122        O  0.08693236  0.86900466  0.26313136    -0.81600
O123        O  0.97489859  0.04341413  0.37067684    -0.83400
O124        O  0.08844174  0.85900804  0.18853009    -0.79000
O125        O  0.01584591  0.96633805  0.36848509    -0.90600
O126        O  0.16033718  0.02611073  0.27886020    -0.76600
O127        O  0.09405756  0.96562198  0.22549036    -0.86100
O128        O  0.05111938  0.03572563  0.29337867    -0.85800
O129        O  0.99529105  0.91270567  0.23651040    -0.72500
O130        O  0.95779471  0.97952565  0.29823279    -0.84700
Zr131      Zr  0.96369549  0.05979577  0.17277480     2.26400
Zr132      Zr  0.04334846  0.93590686  0.16825547     2.06300
Zr133      Zr  0.96457836  0.07008357  0.29619952     2.10000
Zr134      Zr  0.10017068  0.05513104  0.22603603     1.78800
O135        O  0.87951388  0.07422218  0.33773768    -0.93500
O136        O  0.17852631  0.03489006  0.17830278    -0.41300
O137        O  0.01441714  0.09177291  0.22876929    -0.77900
O138        O  0.05128996  0.02664865  0.16682385    -0.96600
O139        O  0.95758684  0.97003397  0.17296789    -0.89900
O140        O  0.91445422  0.03852546  0.23988577    -0.92700
C141        C  0.16401749  0.99308253  0.30979690     1.01000
C142        C  0.99327019  0.00418677  0.38873536     1.13900
C143        C  0.09834893  0.84370074  0.22710628     1.04700
O144        O  0.12254205  0.93055368  0.11853236    -0.94900
O145        O  0.02225825  0.95726888  0.09425253    -0.90600
O146        O  0.97853554  0.03272332  0.09685387    -0.83800
C147        C  0.99902608  0.99398870  0.07633040     1.11400
O148        O  0.87856089  0.88772441  0.29650528    -0.96900
Zr149      Zr  0.90972765  0.94854570  0.24015569     1.88900
O150        O  0.88158671  0.04033461  0.14306031    -0.73500
O151        O  0.00044975  0.86329797  0.13845951    -0.52800
O152        O  0.89683279  0.86451660  0.20953288    -0.97500
O153        O  0.82423581  0.96862517  0.27676009    -0.54700
O154        O  0.86009095  0.96637316  0.17774285    -0.74000
C155        C  0.85420782  0.00021326  0.14811712     0.98300
O156        O  0.98804239  0.13352152  0.12745897    -0.62900
O157        O  0.99967541  0.14185303  0.33422643    -0.57700
O158        O  0.91633854  0.13574410  0.19973352    -0.94300
O159        O  0.92528187  0.14934098  0.27283707    -0.92800
O160        O  0.11558952  0.13233119  0.26698643    -0.93100
O161        O  0.13422317  0.12422557  0.17924963    -0.91900
C162        C  0.90998829  0.16296319  0.23533972     1.17200
H163        H  0.06820552  0.04743138  0.31859898     0.33100
H164        H  0.06894980  0.03684908  0.13881629     0.43900
H165        H  0.88031917  0.05389258  0.24144448     0.37500
H166        H  0.99280416  0.87636439  0.23903389     0.34000
H167        H  0.19269991  0.00381199  0.19121638     0.25700
H168        H  0.02643789  0.84905550  0.11571713     0.31700
H169        H  0.87068330  0.86913548  0.18783998     0.37600
H170        H  0.15022063  0.12740662  0.27792613     0.32000
H171        H  0.02937419  0.12798431  0.34900345     0.30900
H172        H  0.85555563  0.08736603  0.31657836     0.32600
H173        H  0.80968871  0.99537719  0.25843827     0.31600
H174        H  0.11447283  0.12280054  0.15267576     0.35600
H175        H  0.00413134  0.15681912  0.14789531     0.28300
H176        H  0.06166928  0.86260181  0.35074753     0.32500
H177        H  0.91046559  0.87210125  0.30649314     0.35400
H178        H  0.01582213  0.16332432  0.31011342     0.28000
H179        H  0.01742750  0.12190037  0.10660342     0.40900
H180        H  0.11821232  0.89997232  0.10020913     0.30900
H181        H  0.16595386  0.02343144  0.14996837     0.38500
H182        H  0.83126848  0.98604116  0.30462527     0.30400
H183        H  0.99768176  0.83778262  0.16248349     0.30500
H184        H  0.01322754  0.84805988  0.32569897     0.30700
Zr185      Zr  0.95375268  0.05655000  0.67281763     2.17500
O186        O  0.95767432  0.13080243  0.62471479    -0.51600
O187        O  0.86728156  0.03956911  0.65222978    -0.74800
O188        O  0.97675371  0.03528981  0.59637888    -0.81600
O189        O  0.92351149  0.14471434  0.77400171    -0.83400
O190        O  0.02362423  0.96166382  0.59144721    -0.79000
O191        O  0.91794852  0.13685603  0.69983996    -0.90600
O192        O  0.85279687  0.95857987  0.67420856    -0.76600
O193        O  0.95446332  0.96649895  0.66835445    -0.86100
O194        O  0.90399068  0.02923893  0.73793940    -0.85800
O195        O  0.04330171  0.03025285  0.66635451    -0.72500
O196        O  0.99909333  0.08951633  0.73184668    -0.84700
Zr197      Zr  0.04057444  0.94235718  0.78957637     2.26400
Zr198      Zr  0.04326189  0.93908617  0.66500982     2.06300
Zr199      Zr  0.95006219  0.06007246  0.79728637     2.10000
Zr200      Zr  0.90641224  0.93920104  0.73390200     1.78800
O201        O  0.95844759  0.12847075  0.85033556    -0.93500
O202        O  0.89664612  0.85816776  0.69665658    -0.41300
O203        O  0.95086481  0.96915443  0.79512256    -0.77900
O204        O  0.99451442  0.90979638  0.73069033    -0.96600
O205        O  0.08949851  0.97005221  0.72420195    -0.89900
O206        O  0.03882451  0.03282576  0.79326748    -0.92700
C207        C  0.84091223  0.99883973  0.65347744     1.01000
C208        C  0.91258591  0.16222981  0.73625233     1.13900
C209        C  0.00031969  0.99899434  0.57478659     1.04700
O210        O  0.02232723  0.86510360  0.62195928    -0.94900
O211        O  0.08606489  0.86037852  0.68478852    -0.90600
O212        O  0.08849040  0.86781799  0.75948103    -0.83800
C213        C  0.09862148  0.84396302  0.72235322     1.11400
O214        O  0.11257536  0.13058209  0.67905849    -0.96900
Zr215      Zr  0.08688686  0.06008950  0.72766915     1.88900
O216        O  0.12557199  0.96057766  0.81502901    -0.73500
O217        O  0.12887281  0.95098194  0.62633524    -0.52800
O218        O  0.16881364  0.04727600  0.68275036    -0.97500
O219        O  0.09854196  0.13783134  0.76926021    -0.54700
O220        O  0.14632991  0.03466232  0.78063063    -0.74000
C221        C  0.15544265  0.99863044  0.80736213     0.98300
O222        O  0.01969169  0.86815110  0.83559050    -0.62900
O223        O  0.85941578  0.05298316  0.82592405    -0.57700
O224        O  0.02046978  0.96252744  0.86658890    -0.94300
O225        O  0.96818537  0.03276763  0.87091192    -0.92800
O226        O  0.82094728  0.95632757  0.77171609    -0.93100
O227        O  0.87626198  0.87414170  0.78675919    -0.91900
C228        C  0.99422388  0.99736664  0.88806271     1.17200
H229        H  0.86901980  0.04269906  0.73945238     0.33100
H230        H  0.99462973  0.87321457  0.73152482     0.43900
H231        H  0.05468489  0.04492874  0.81898169     0.37500
H232        H  0.06093067  0.04313977  0.63924792     0.34000
H233        H  0.91617059  0.86207540  0.66720446     0.25700
H234        H  0.15309464  0.93423716  0.64542184     0.31700
H235        H  0.19569266  0.05926439  0.70156347     0.37600
H236        H  0.79621640  0.94128018  0.75232979     0.32000
H237        H  0.86060011  0.03855991  0.85602495     0.30900
H238        H  0.92311110  0.13376916  0.86512603     0.32600
H239        H  0.13540523  0.13715977  0.77563581     0.31600
H240        H  0.90657421  0.86659926  0.80354024     0.35600
H241        H  0.98516422  0.87556259  0.85119215     0.28300
H242        H  0.93591722  0.12313686  0.60020640     0.32500
H243        H  0.08094262  0.15196971  0.67892068     0.35400
H244        H  0.84733908  0.08840001  0.83116185     0.28000
H245        H  0.01283258  0.84080764  0.81447251     0.40900
H246        H  0.05129812  0.86164121  0.59842136     0.30900
H247        H  0.91727922  0.83324460  0.71229552     0.38500
H248        H  0.07893388  0.13272943  0.79852208     0.30400
H249        H  0.12933293  0.92890417  0.59976010     0.30500
H250        H  0.99370257  0.13167152  0.61077258     0.30700
N251        N  0.25216495  0.96595166  0.33100043    -0.03800
C252        C  0.20994703  0.99784268  0.33589878    -0.01200
C253        C  0.22586486  0.04695396  0.34264620    -0.24100
C254        C  0.27850086  0.04683705  0.33579175    -0.24300
C255        C  0.29347891  0.99738592  0.32641210    -0.01300
H256        H  0.20166268  0.08072604  0.34374499     0.12500
H257        H  0.30257594  0.08014274  0.33276896     0.12500
N258        N  0.24110484  0.96388793  0.82520378    -0.03800
C259        C  0.20544085  0.00247264  0.82769853    -0.01200
C260        C  0.23048373  0.04865343  0.82185794    -0.24100
C261        C  0.28066980  0.03815089  0.80754860    -0.24300
C262        C  0.28600819  0.98639272  0.80871079    -0.01300
H263        H  0.21226899  0.08549580  0.81902974     0.12500
H264        H  0.30925378  0.06506330  0.79440101     0.12500
Zr265      Zr  0.55798213  0.93962097  0.15615567     2.17500
O266        O  0.62088420  0.87085401  0.14270952    -0.51600
O267        O  0.55656299  0.96805737  0.07944717    -0.74800
O268        O  0.51540725  0.86569471  0.12835369    -0.81600
O269        O  0.66899993  0.03015089  0.16872738    -0.83400
O270        O  0.44691849  0.84485243  0.17693732    -0.79000
O271        O  0.64486085  0.96106710  0.13053256    -0.90600
O272        O  0.50709292  0.03924606  0.08225585    -0.76600
O273        O  0.46857611  0.96025496  0.15646805    -0.86100
O274        O  0.55688645  0.02973320  0.15817184    -0.85800
O275        O  0.51907836  0.89957486  0.22214192    -0.72500
O276        O  0.59817137  0.96468260  0.22161292    -0.84700
Zr277      Zr  0.46705959  0.03873568  0.28962913     2.26400
Zr278      Zr  0.42867326  0.92256257  0.22324109     2.06300
Zr279      Zr  0.59589982  0.05566622  0.22324452     2.10000
Zr280      Zr  0.46768101  0.05049233  0.15838777     1.78800
O281        O  0.67263552  0.05533249  0.26436009    -0.93500
O282        O  0.39457930  0.03336695  0.11510282    -0.41300
O283        O  0.50595491  0.07862056  0.22394814    -0.77900
O284        O  0.42628721  0.01359744  0.22452180    -0.96600
O285        O  0.46785691  0.94872595  0.28858286    -0.89900
O286        O  0.55618461  0.01730325  0.28942096    -0.92700
C287        C  0.53784502  0.00711758  0.06099929     1.01000
C288        C  0.67774370  0.99452566  0.13945845     1.13900
C289        C  0.48041487  0.83449981  0.14368847     1.04700
O290        O  0.35855552  0.92512771  0.17464232    -0.94900
O291        O  0.35412365  0.94928771  0.27648073    -0.90600
O292        O  0.38014210  0.01748334  0.31497184    -0.83800
C293        C  0.34613018  0.98542542  0.30550070     1.11400
O294        O  0.63163750  0.87096782  0.27408028    -0.96900
Zr295      Zr  0.55680106  0.92723787  0.28781766     1.88900
O296        O  0.46607024  0.00880317  0.36548907    -0.73500
O297        O  0.39213398  0.85040932  0.26487567    -0.52800
O298        O  0.53311555  0.84037794  0.30655827    -0.97500
O299        O  0.62581378  0.94105269  0.33644076    -0.54700
O300        O  0.51358557  0.93656807  0.36288773    -0.74000
C301        C  0.48347878  0.96918772  0.38399156     0.98300
O302        O  0.40771296  0.11067780  0.30206364    -0.62900
O303        O  0.61978292  0.13292259  0.18320659    -0.57700
O304        O  0.51150364  0.10962190  0.32054568    -0.94300
O305        O  0.58072852  0.13074056  0.27319774    -0.92800
O306        O  0.48922131  0.13582212  0.13308175    -0.93100
O307        O  0.39614194  0.10994473  0.17576645    -0.91900
C308        C  0.54816003  0.14007348  0.30726410     1.17200
H309        H  0.57686891  0.04409687  0.13289080     0.33100
H310        H  0.39061271  0.02510510  0.22702659     0.43900
H311        H  0.57080456  0.02974365  0.31564241     0.37500
H312        H  0.52387031  0.86334117  0.21984849     0.34000
H313        H  0.40022859  0.05532276  0.08861882     0.25700
H314        H  0.36299378  0.83919494  0.24821108     0.31700
H315        H  0.49499109  0.84167294  0.31327548     0.37600
H316        H  0.52413298  0.13259015  0.11702473     0.32000
H317        H  0.65453288  0.14117254  0.19232773     0.30900
H318        H  0.70003200  0.07100680  0.24407360     0.32600
H319        H  0.61005724  0.96168234  0.36162063     0.31600
H320        H  0.40061455  0.12189907  0.20626852     0.35600
H321        H  0.40601442  0.11749144  0.33439784     0.28300
H322        H  0.61990563  0.86179062  0.11097765     0.32500
H323        H  0.63241514  0.86228286  0.24213259     0.35400
H324        H  0.62593276  0.12222747  0.15175051     0.28000
H325        H  0.42610093  0.14000097  0.28798304     0.40900
H326        H  0.33017328  0.90600129  0.19083738     0.30900
H327        H  0.40067557  0.99855351  0.10342197     0.38500
H328        H  0.64997629  0.96435742  0.31968758     0.30400
H329        H  0.41847729  0.82301304  0.26030394     0.30500
H330        H  0.60586903  0.84161716  0.15956823     0.30700
Zr331      Zr  0.41588291  0.95620701  0.68763493     2.17500
O332        O  0.32936873  0.95186402  0.66190388    -0.51600
O333        O  0.41180232  0.86357841  0.68375323    -0.74800
O334        O  0.42031308  0.95769051  0.60540011    -0.81600
O335        O  0.36759451  0.94772857  0.81158075    -0.83400
O336        O  0.49808073  0.99094038  0.57989768    -0.79000
O337        O  0.34208494  0.96941413  0.74442895    -0.90600
O338        O  0.49626280  0.83993813  0.67597868    -0.76600
O339        O  0.50378436  0.93957783  0.66084247    -0.86100
O340        O  0.45567396  0.91667524  0.74751914    -0.85800
O341        O  0.45321023  0.03738904  0.66607058    -0.72500
O342        O  0.41449064  0.01823411  0.74606945    -0.84700
Zr343      Zr  0.58187935  0.04234679  0.75886221     2.26400
Zr344      Zr  0.54187985  0.01971119  0.64184835     2.06300
Zr345      Zr  0.45538039  0.97877307  0.80521510     2.10000
Zr346      Zr  0.54253039  0.89985689  0.72012610     1.78800
O347        O  0.40035979  0.03153218  0.85637933    -0.93500
O348        O  0.60769273  0.85949304  0.66808076    -0.41300
O349        O  0.54389986  0.96090117  0.77964953    -0.77900
O350        O  0.58255077  0.97858420  0.70071353    -0.96600
O351        O  0.54165566  0.08258436  0.69948883    -0.89900
O352        O  0.49355020  0.05814306  0.78502179    -0.92700
C353        C  0.44772539  0.82978753  0.67735065     1.01000
C354        C  0.33306424  0.96244441  0.78676930     1.13900
C355        C  0.45478645  0.97033135  0.57397723     1.04700
O356        O  0.60024045  0.97818064  0.58499869    -0.94900
O357        O  0.62788378  0.05372848  0.63344437    -0.90600
O358        O  0.65713928  0.04262004  0.70131832    -0.83800
C359        C  0.66395107  0.04443817  0.65838838     1.11400
O360        O  0.37074455  0.12757603  0.70337594    -0.96900
Zr361      Zr  0.45360213  0.09758378  0.72612176     1.88900
O362        O  0.57697117  0.13200346  0.78482195    -0.73500
O363        O  0.52951690  0.09547821  0.59800461    -0.52800
O364        O  0.46662253  0.16251313  0.66921362    -0.97500
O365        O  0.39005965  0.13118191  0.78335956    -0.54700
O366        O  0.49801905  0.16007320  0.76770112    -0.74000
C367        C  0.53984097  0.16513959  0.78720706     0.98300
O368        O  0.66649143  0.04783185  0.78845455    -0.62900
O369        O  0.45540490  0.90562174  0.85426923    -0.57700
O370        O  0.58500271  0.02741901  0.83932620    -0.94300
O371        O  0.50420610  0.00275514  0.86587979    -0.92800
O372        O  0.52308816  0.83945790  0.77988961    -0.93100
O373        O  0.62281927  0.86752333  0.74640576    -0.91900
C374        C  0.55004033  0.01773681  0.87121359     1.17200
H375        H  0.43782488  0.88668868  0.75850136     0.33100
H376        H  0.61698567  0.96705771  0.69067690     0.43900
H377        H  0.49086883  0.07934013  0.81117058     0.37500
H378        H  0.43553902  0.05198131  0.64219979     0.34000
H379        H  0.59940413  0.82293977  0.66913969     0.25700
H380        H  0.55213514  0.12119281  0.61004523     0.31700
H381        H  0.49048274  0.18703575  0.68127238     0.37600
H382        H  0.53999364  0.80746647  0.76891435     0.32000
H383        H  0.49000387  0.90510056  0.86585042     0.30900
H384        H  0.40659463  0.01908383  0.88634406     0.32600
H385        H  0.39579168  0.16819729  0.78363788     0.31600
H386        H  0.64237695  0.89823892  0.75311797     0.35600
H387        H  0.68688827  0.01817775  0.77639853     0.28300
H388        H  0.33082496  0.92332607  0.64047323     0.32500
H389        H  0.35272330  0.09639265  0.69535278     0.35400
H390        H  0.43109424  0.91508249  0.88020441     0.28000
H391        H  0.68370058  0.07775942  0.77426213     0.40900
H392        H  0.58971119  0.94222307  0.58566706     0.30900
H393        H  0.59870251  0.87057808  0.63842727     0.38500
H394        H  0.40191477  0.11916645  0.81180556     0.30400
H395        H  0.54659542  0.08728326  0.56819139     0.30500
H396        H  0.32591385  0.98263747  0.64369170     0.30700
N397        N  0.57663477  0.23227351  0.32033738    -0.03800
C398        C  0.54004416  0.26955132  0.31585875    -0.01200
C399        C  0.49226697  0.25556525  0.33540800    -0.24100
C400        C  0.49684597  0.20637389  0.34716527    -0.24300
C401        C  0.54636649  0.19061469  0.33128198    -0.01300
H402        H  0.45636299  0.27712388  0.33640845     0.12500
H403        H  0.46401132  0.18268117  0.35701772     0.12500
N404        N  0.57182767  0.24814824  0.82155892    -0.03800
C405        C  0.53797672  0.20838807  0.81967195    -0.01200
C406        C  0.49022725  0.22073083  0.84119233    -0.24100
C407        C  0.49080241  0.27113437  0.84937314    -0.24300
C408        C  0.53848065  0.28837111  0.83131416    -0.01300
H409        H  0.45588578  0.19748468  0.84386165     0.12500
H410        H  0.45644575  0.29353058  0.85902335     0.12500
Zr411      Zr  0.04838001  0.56107170  0.29432323     2.17500
O412        O  0.02726021  0.63627534  0.33953799    -0.51600
O413        O  0.13547901  0.55221764  0.31671307    -0.74800
O414        O  0.02388838  0.53758954  0.37000669    -0.81600
O415        O  0.09713297  0.64249466  0.19010007    -0.83400
O416        O  0.97703189  0.46475635  0.37072220    -0.79000
O417        O  0.08906306  0.63737492  0.26527039    -0.90600
O418        O  0.12546732  0.47071117  0.30693308    -0.76600
O419        O  0.05029047  0.47025994  0.29736199    -0.86100
O420        O  0.10271432  0.53340318  0.23036374    -0.85800
O421        O  0.96043028  0.53205575  0.29586868    -0.72500
O422        O  0.00723366  0.59298148  0.23243747    -0.84700
Zr423      Zr  0.97256100  0.44617535  0.17097621     2.26400
Zr424      Zr  0.96351174  0.44076282  0.29577295     2.06300
Zr425      Zr  0.05999551  0.56298778  0.16843721     2.10000
Zr426      Zr  0.10289301  0.44343686  0.23365018     1.78800
O427        O  0.04482828  0.63797175  0.12438894    -0.93500
O428        O  0.12830548  0.36409943  0.26742899    -0.41300
O429        O  0.06147534  0.47198406  0.16998589    -0.77900
O430        O  0.01640697  0.41279636  0.23116555    -0.96600
O431        O  0.92019052  0.47326448  0.23529095    -0.89900
O432        O  0.97193078  0.53658256  0.16868605    -0.92700
C433        C  0.15498129  0.50796617  0.31345131     1.01000
C434        C  0.10308142  0.66022377  0.22873318     1.13900
C435        C  0.99872909  0.50133586  0.38960790     1.04700
O436        O  0.99065333  0.36612592  0.33529233    -0.94900
O437        O  0.92392754  0.36248082  0.27215203    -0.90600
O438        O  0.92458419  0.37166930  0.19741873    -0.83800
C439        C  0.91331190  0.34706694  0.23368085     1.11400
O440        O  0.89286446  0.63579165  0.27979239    -0.96900
Zr441      Zr  0.92050775  0.56338601  0.23309086     1.88900
O442        O  0.88700412  0.46160690  0.14566849    -0.73500
O443        O  0.87564962  0.44455028  0.33238350    -0.52800
O444        O  0.83661158  0.55311854  0.27530687    -0.97500
O445        O  0.90984960  0.64165193  0.19209396    -0.54700
O446        O  0.86486442  0.53733427  0.17774701    -0.74000
C447        C  0.85643985  0.49991942  0.15232443     0.98300
O448        O  0.99825304  0.37407360  0.12299745    -0.62900
O449        O  0.14818724  0.55183667  0.13408643    -0.57700
O450        O  0.99395013  0.47024209  0.09481491    -0.94300
O451        O  0.04426795  0.54065962  0.09361501    -0.92800
O452        O  0.18404252  0.46819755  0.19267106    -0.93100
O453        O  0.13950324  0.36946462  0.19347583    -0.91900
C454        C  0.01956117  0.50607101  0.07489868     1.17200
H455        H  0.13720586  0.54722131  0.22979149     0.33100
H456        H  0.01784450  0.37620380  0.22971702     0.43900
H457        H  0.95691676  0.54920467  0.14269875     0.37500
H458        H  0.94063341  0.54395720  0.32252775     0.34000
H459        H  0.14172314  0.37361124  0.29594408     0.25700
H460        H  0.86444220  0.40886070  0.33510104     0.31700
H461        H  0.81077017  0.55302169  0.25301627     0.37600
H462        H  0.18015924  0.45848952  0.16146704     0.32000
H463        H  0.14508592  0.55364114  0.10170386     0.30900
H464        H  0.07568972  0.64022699  0.10265969     0.32600
H465        H  0.87571676  0.63872256  0.17994221     0.31600
H466        H  0.11896090  0.36651885  0.16746251     0.35600
H467        H  0.03463860  0.38089968  0.11184180     0.28300
H468        H  0.04587605  0.63219337  0.36658104     0.32500
H469        H  0.90332101  0.62739103  0.30966603     0.35400
H470        H  0.16624273  0.58337393  0.14104840     0.28000
H471        H  0.00108896  0.34493577  0.14323496     0.40900
H472        H  0.02728599  0.37248962  0.34041564     0.30900
H473        H  0.09513301  0.34703067  0.27632974     0.38500
H474        H  0.93542008  0.63909195  0.16579721     0.30400
H475        H  0.87940759  0.45535537  0.36331823     0.30500
H476        H  0.99005647  0.63304602  0.34972353     0.30700
Zr477      Zr  0.96039192  0.44795877  0.67524691     2.17500
O478        O  0.97602875  0.37458832  0.62652459    -0.51600
O479        O  0.87421752  0.46517937  0.64996678    -0.74800
O480        O  0.91742904  0.37348116  0.70723529    -0.81600
O481        O  0.02473201  0.54071064  0.59275367    -0.83400
O482        O  0.92705773  0.36290406  0.78049373    -0.79000
O483        O  0.98173393  0.46567420  0.59828878    -0.90600
O484        O  0.84902652  0.53622946  0.68867030    -0.76600
O485        O  0.91535079  0.47182362  0.74394798    -0.86100
O486        O  0.95599170  0.53809400  0.67277952    -0.85800
O487        O  0.01441901  0.41607243  0.72951151    -0.72500
O488        O  0.04821227  0.47852906  0.66587895    -0.84700
Zr489      Zr  0.05021362  0.56513190  0.78782091     2.26400
Zr490      Zr  0.97013368  0.44229950  0.79855771     2.06300
Zr491      Zr  0.04299002  0.56926393  0.66505161     2.10000
Zr492      Zr  0.91060446  0.56160210  0.74113303     1.78800
O493        O  0.12313250  0.56597951  0.61643127    -0.93500
O494        O  0.83311635  0.54361021  0.79009420    -0.41300
O495        O  0.99669255  0.59601872  0.73315870    -0.77900
O496        O  0.96279785  0.53339442  0.79814038    -0.96600
O497        O  0.05557499  0.47522117  0.78992563    -0.89900
O498        O  0.09650265  0.53966172  0.72001076    -0.92700
C499        C  0.84235637  0.50210501  0.65920183     1.01000
C500        C  0.00366504  0.50210881  0.57639515     1.13900
C501        C  0.91138494  0.34783508  0.74344677     1.04700
O502        O  0.89471869  0.43511300  0.85224714    -0.94900
O503        O  0.99370827  0.46822311  0.87069783    -0.90600
O504        O  0.03817615  0.54242290  0.86484218    -0.83800
C505        C  0.01818204  0.50498210  0.88681310     1.11400
O506        O  0.12419071  0.38314595  0.66825357    -0.96900
Zr507      Zr  0.10067437  0.44982180  0.72244288     1.88900
O508        O  0.13301164  0.54551456  0.81618476    -0.73500
O509        O  0.02465211  0.37715130  0.82736807    -0.52800
O510        O  0.12499806  0.36828360  0.75263097    -0.97500
O511        O  0.18173837  0.47330477  0.68076320    -0.54700
O512        O  0.15216098  0.46881819  0.78444471    -0.74000
C513        C  0.15931507  0.50415432  0.81274994     0.98300
O514        O  0.03115533  0.64144965  0.83217643    -0.62900
O515        O  0.00730552  0.64359952  0.63060475    -0.57700
O516        O  0.09790680  0.63767804  0.75598659    -0.94300
O517        O  0.08956853  0.64613868  0.68233170    -0.92800
O518        O  0.88971905  0.63961179  0.70335253    -0.93100
O519        O  0.88372732  0.63027440  0.79225562    -0.91900
C520        C  0.10569805  0.66170428  0.71889955     1.17200
H521        H  0.93792795  0.54962441  0.64799153     0.33100
H522        H  0.94657657  0.54500009  0.82642370     0.43900
H523        H  0.13080235  0.55400075  0.71638768     0.37500
H524        H  0.01670992  0.37954315  0.72764383     0.34000
H525        H  0.81812499  0.51318000  0.77716086     0.25700
H526        H  0.00263600  0.36248395  0.85239892     0.31700
H527        H  0.12558739  0.37388009  0.78499353     0.37600
H528        H  0.89273286  0.63087705  0.67133443     0.32000
H529        H  0.97881616  0.63076752  0.61402057     0.30900
H530        H  0.12368282  0.59847783  0.60010589     0.32600
H531        H  0.17422485  0.47240301  0.64920020     0.31600
H532        H  0.91638815  0.64747873  0.79770159     0.35600
H533        H  0.01912721  0.66671461  0.81107268     0.28300
H534        H  0.94121187  0.36337716  0.61968285     0.32500
H535        H  0.09324452  0.37955974  0.65146515     0.35400
H536        H  0.98961814  0.66319422  0.65562124     0.28000
H537        H  0.99955967  0.63338263  0.85164100     0.40900
H538        H  0.89967535  0.40233670  0.86725867     0.30900
H539        H  0.84638488  0.53141321  0.81796290     0.38500
H540        H  0.20550478  0.44418540  0.68405810     0.30400
H541        H  0.02800902  0.35059452  0.80411776     0.30500
H542        H  0.98900133  0.34745648  0.64536658     0.30700
N543        N  0.25014845  0.53315698  0.31410100    -0.03800
C544        C  0.21135804  0.49962988  0.30730585    -0.01200
C545        C  0.22866595  0.46191224  0.27789770    -0.24100
C546        C  0.27669127  0.47478435  0.26122171    -0.24300
C547        C  0.28906132  0.51836593  0.28278702    -0.01300
H548        H  0.20668192  0.43097194  0.26593406     0.12500
H549        H  0.30065941  0.45387105  0.23613082     0.12500
N550        N  0.24169103  0.52372131  0.84703611    -0.03800
C551        C  0.19951659  0.49391530  0.84363452    -0.01200
C552        C  0.21160329  0.44393384  0.85220709    -0.24100
C553        C  0.26365881  0.44170553  0.85582242    -0.24300
C554        C  0.28195893  0.49024957  0.84846609    -0.01300
H555        H  0.18725096  0.41142211  0.84818346     0.12500
H556        H  0.28648671  0.40704092  0.85441695     0.12500
Zr557      Zr  0.59017527  0.43642226  0.26781443     2.17500
O558        O  0.67363926  0.41511446  0.29495010    -0.51600
O559        O  0.58337777  0.34505180  0.28576789    -0.74800
O560        O  0.57923096  0.44888335  0.34890793    -0.81600
O561        O  0.65352974  0.43058038  0.14970558    -0.83400
O562        O  0.49227193  0.44857053  0.36049639    -0.79000
O563        O  0.66894291  0.45579969  0.21836213    -0.90600
O564        O  0.50263452  0.32554632  0.26805042    -0.76600
O565        O  0.49976804  0.42248521  0.28445172    -0.86100
O566        O  0.55834804  0.40067466  0.20262713    -0.85800
O567        O  0.55232846  0.51857668  0.29008438    -0.72500
O568        O  0.59950257  0.50080692  0.21157575    -0.84700
Zr569      Zr  0.43979635  0.53345102  0.18495163     2.26400
Zr570      Zr  0.46175232  0.50311482  0.30460162     2.06300
Zr571      Zr  0.56779179  0.46496229  0.14669659     2.10000
Zr572      Zr  0.46834928  0.38804409  0.21968839     1.78800
O573        O  0.62933045  0.51262016  0.09782429    -0.93500
O574        O  0.39336955  0.35616092  0.26522661    -0.41300
O575        O  0.47731736  0.45162438  0.16329471    -0.77900
O576        O  0.42786805  0.46740850  0.23990929    -0.96600
O577        O  0.47093942  0.56910510  0.25022082    -0.89900
O578        O  0.53039163  0.54591445  0.16679277    -0.92700
C579        C  0.54378187  0.31576202  0.28738562     1.01000
C580        C  0.68306542  0.44952721  0.17656957     1.13900
C581        C  0.53715686  0.44605635  0.37479974     1.04700
O582        O  0.40044827  0.48514430  0.36838804    -0.94900
O583        O  0.37160085  0.52608341  0.30631871    -0.90600
O584        O  0.35920339  0.54278432  0.23412132    -0.83800
C585        C  0.34278492  0.53477769  0.27506181     1.11400
O586        O  0.64163527  0.59786560  0.26510928    -0.96900
Zr587      Zr  0.56103130  0.58120460  0.23197592     1.88900
O588        O  0.44654397  0.62368209  0.16317662    -0.73500
O589        O  0.47738140  0.57748154  0.34908680    -0.52800
O590        O  0.54018974  0.64350520  0.29051713    -0.97500
O591        O  0.62979090  0.62480921  0.18734769    -0.54700
O592        O  0.52294603  0.64688721  0.18797732    -0.74000
C593        C  0.48375315  0.65526940  0.16550280     0.98300
O594        O  0.36116765  0.53430013  0.14585838    -0.62900
O595        O  0.57031998  0.39200837  0.09683525    -0.57700
O596        O  0.44529400  0.52198895  0.10475738    -0.94300
O597        O  0.52546515  0.48994555  0.08275620    -0.92800
O598        O  0.49387867  0.32310683  0.16433823    -0.93100
O599        O  0.39647733  0.36054223  0.17895717    -0.91900
C600        C  0.48119409  0.50812697  0.07508880     1.17200
H601        H  0.57665684  0.36974802  0.19377071     0.33100
H602        H  0.39211006  0.45820183  0.24567450     0.43900
H603        H  0.53661721  0.56820586  0.14163781     0.37500
H604        H  0.56667175  0.53202619  0.31606478     0.34000
H605        H  0.39749924  0.31883228  0.26434679     0.25700
H606        H  0.44684043  0.59973462  0.34615132     0.31700
H607        H  0.53911516  0.67632061  0.27481742     0.37600
H608        H  0.50158495  0.29266928  0.18176567     0.32000
H609        H  0.59725488  0.40026976  0.07267829     0.30900
H610        H  0.63860580  0.48979301  0.07222725     0.32600
H611        H  0.62296352  0.66139753  0.19272180     0.31600
H612        H  0.37504740  0.39149526  0.17624146     0.35600
H613        H  0.33925660  0.50671235  0.15904751     0.28300
H614        H  0.66639925  0.38744811  0.31660623     0.32500
H615        H  0.65241884  0.56464964  0.27661301     0.35400
H616        H  0.58585867  0.36408011  0.11316867     0.28000
H617        H  0.34244349  0.56611274  0.15480140     0.40900
H618        H  0.38817954  0.45036528  0.36322219     0.30900
H619        H  0.39961689  0.36572220  0.29600944     0.38500
H620        H  0.62229450  0.61912370  0.15616112     0.30400
H621        H  0.47305732  0.56543652  0.38018700     0.30500
H622        H  0.68196678  0.44460013  0.31325480     0.30700
Zr623      Zr  0.45251215  0.43930589  0.79605687     2.17500
O624        O  0.39382428  0.37007551  0.81703579    -0.51600
O625        O  0.46772784  0.46831767  0.86944298    -0.74800
O626        O  0.50049093  0.36837010  0.82306682    -0.81600
O627        O  0.33616742  0.52628846  0.78843302    -0.83400
O628        O  0.57025793  0.35013602  0.77458310    -0.79000
O629        O  0.36782323  0.46326509  0.82997938    -0.90600
O630        O  0.50930947  0.54313153  0.86219917    -0.76600
O631        O  0.54027846  0.46561643  0.79097481    -0.86100
O632        O  0.44762070  0.52898067  0.79062218    -0.85800
O633        O  0.49189888  0.39790566  0.73047121    -0.72500
O634        O  0.40572739  0.45555275  0.73231288    -0.84700
Zr635      Zr  0.53102486  0.53549844  0.65410654     2.26400
Zr636      Zr  0.58028102  0.42597091  0.72496680     2.06300
Zr637      Zr  0.40212414  0.54571124  0.72684508     2.10000
Zr638      Zr  0.53525923  0.55520752  0.78406175     1.78800
O639        O  0.32216656  0.53361265  0.69152693    -0.93500
O640        O  0.61996393  0.54139113  0.81146488    -0.41300
O641        O  0.49023863  0.57431735  0.72036901    -0.77900
O642        O  0.57733468  0.51718452  0.71848608    -0.96600
O643        O  0.53597191  0.44544331  0.66030924    -0.89900
O644        O  0.44299779  0.50826805  0.65967407    -0.92700
C645        C  0.48692076  0.50807324  0.88569363     1.01000
C646        C  0.33235364  0.49511706  0.82139355     1.13900
C647        C  0.53838670  0.33928533  0.80865522     1.04700
O648        O  0.65323456  0.43175754  0.77030468    -0.94900
O649        O  0.65351423  0.45428676  0.67309193    -0.90600
O650        O  0.62386182  0.52200345  0.63595985    -0.83800
C651        C  0.66017572  0.49113965  0.64521857     1.11400
O652        O  0.38358238  0.35457207  0.68673335    -0.96900
Zr653      Zr  0.44831035  0.41861810  0.66603294     1.88900
O654        O  0.51608859  0.50336613  0.58092438    -0.73500
O655        O  0.61662450  0.35404523  0.68186417    -0.52800
O656        O  0.47181696  0.33228435  0.64329693    -0.97500
O657        O  0.37390192  0.43595861  0.62404657    -0.54700
O658        O  0.48620150  0.42348712  0.58987590    -0.74000
C659        C  0.50523470  0.45973707  0.56568284     0.98300
O660        O  0.57333950  0.59359773  0.59996782    -0.62900
O661        O  0.37222010  0.62684212  0.75843433    -0.57700
O662        O  0.49384487  0.62227291  0.65821903    -0.94300
O663        O  0.40757329  0.61356049  0.67212431    -0.92800
O664        O  0.50916211  0.63663309  0.81739135    -0.93100
O665        O  0.58581142  0.62980025  0.76236113    -0.91900
C666        C  0.44757189  0.64112760  0.66389630     1.17200
H667        H  0.42920074  0.54413856  0.81660064     0.33100
H668        H  0.61176372  0.53115500  0.71607789     0.43900
H669        H  0.42584271  0.51864002  0.63401940     0.37500
H670        H  0.49019423  0.36163200  0.73393872     0.34000
H671        H  0.62516816  0.57135994  0.83024391     0.25700
H672        H  0.64531335  0.34145327  0.69863911     0.31700
H673        H  0.51012616  0.33242402  0.63829219     0.37600
H674        H  0.47111307  0.63436969  0.82396343     0.32000
H675        H  0.33392173  0.62590300  0.75949749     0.30900
H676        H  0.29969668  0.56262083  0.70190600     0.32600
H677        H  0.34542956  0.44497614  0.64682167     0.31600
H678        H  0.59007900  0.62843635  0.72948767     0.35600
H679        H  0.54551836  0.60742505  0.58281942     0.28300
H680        H  0.39780375  0.36383436  0.84886761     0.32500
H681        H  0.38148102  0.35354804  0.71959856     0.35400
H682        H  0.38036155  0.62553389  0.78979642     0.28000
H683        H  0.58485484  0.62260671  0.61731986     0.40900
H684        H  0.67129744  0.46317235  0.76042275     0.30900
H685        H  0.61505850  0.51299255  0.83271727     0.38500
H686        H  0.36407450  0.40260455  0.61253044     0.30400
H687        H  0.58986845  0.32753634  0.68572197     0.30500
H688        H  0.40908863  0.33981699  0.80125167     0.30700
C689        C  0.53753813  0.44078651  0.42379816    -0.06400
C690        C  0.49482478  0.41657904  0.44650539    -0.17600
C691        C  0.48367152  0.42140124  0.49255255     0.10800
C692        C  0.51636838  0.45077019  0.51720014    -0.06400
C693        C  0.56079797  0.47255535  0.49500743    -0.17600
C694        C  0.57207404  0.46729396  0.44892155     0.10800
S695        S  0.42452175  0.39431551  0.51815470    -0.32600
S696        S  0.62898268  0.49810002  0.42392832    -0.32600
H697        H  0.64842363  0.45374588  0.40219475     0.28800
H698        H  0.41195415  0.36577306  0.48130282     0.28800
H699        H  0.46821396  0.39601468  0.42756146     0.19400
H700        H  0.58686252  0.49421459  0.51370737     0.27800
C701        C  0.47349094  0.51514584  0.02823547    -0.06400
C702        C  0.50896336  0.54629237  0.00398601    -0.17600
C703        C  0.51393985  0.54570086  0.95776641     0.10800
C704        C  0.48195532  0.51344719  0.93470644    -0.06400
C705        C  0.44446145  0.48414196  0.95943522    -0.17600
C706        C  0.44009954  0.48446982  0.00581854     0.10800
S707        S  0.56538457  0.58328823  0.93127028    -0.32600
S708        S  0.39560041  0.44082061  0.03415970    -0.32600
H709        H  0.37854065  0.47443473  0.06853690     0.28800
H710        H  0.58905323  0.54126461  0.90877672     0.28800
H711        H  0.53545482  0.56902165  0.02138736     0.19400
H712        H  0.41911049  0.45958599  0.94264017     0.19400
C713        C  0.99581073  0.50095748  0.43760774    -0.06400
C714        C  0.01327038  0.45737556  0.45823029    -0.17600
C715        C  0.01767457  0.45696275  0.50369450     0.10800
C716        C  0.00302462  0.50066638  0.52871877    -0.06400
C717        C  0.98464613  0.54384943  0.50821317    -0.17600
C718        C  0.98024090  0.54426038  0.46286649     0.10800
S719        S  0.04497334  0.40102229  0.52719697    -0.32600
S720        S  0.95256715  0.60015385  0.43978069    -0.32600
H721        H  0.92886843  0.57445567  0.40625267     0.28800
H722        H  0.07064709  0.42681614  0.55952962     0.28800
H723        H  0.02577384  0.42438420  0.43850563     0.19400
H724        H  0.97231167  0.57695563  0.52787737     0.19400
C725        C  0.02071896  0.50733268  0.02680398    -0.06400
C726        C  0.03390115  0.46251424  0.00352260    -0.17600
C727        C  0.03553780  0.46108298  0.95734851     0.10800
C728        C  0.02233857  0.50518503  0.93450300    -0.06400
C729        C  0.01126510  0.55052536  0.95768137    -0.17600
C730        C  0.00972075  0.55199531  0.00371808     0.10800
S731        S  0.05723658  0.40390320  0.92808822    -0.32600
S732        S  0.99025169  0.61095851  0.03083382    -0.32600
H733        H  0.96052893  0.58849936  0.06658140     0.28800
H734        H  0.07185642  0.37697301  0.96520757     0.28800
H735        H  0.04346447  0.42883745  0.02165709     0.19400
H736        H  0.00144073  0.58446100  0.93994951     0.19400
C737        C  0.46784412  0.96184988  0.43274396    -0.06400
C738        C  0.43454125  0.99823250  0.45507829    -0.17600
C739        C  0.42362618  0.99776963  0.50138907     0.10800
C740        C  0.44664820  0.96070406  0.52690348    -0.06400
C741        C  0.47655769  0.92216368  0.50486483    -0.17600
C742        C  0.48660127  0.92162392  0.45842406     0.10800
S743        S  0.38378927  0.04816240  0.52665079    -0.32600
S744        S  0.52600839  0.86990028  0.43506205    -0.32600
H745        H  0.48980256  0.85660488  0.40498611     0.28800
H746        H  0.36280702  0.01899893  0.56260397     0.28800
H747        H  0.41803395  0.02863738  0.43667540     0.19400
H748        H  0.49482901  0.89372008  0.52429385     0.19400
C749        C  0.55133926  0.01601367  0.01218549    -0.06400
C750        C  0.52304085  0.05328212  0.99109249    -0.17600
C751        C  0.52768588  0.05887709  0.94493768     0.10800
C752        C  0.56021182  0.02569089  0.91812852    -0.06400
C753        C  0.59255684  0.99193503  0.93877568    -0.17600
C754        C  0.58975735  0.98792714  0.98542225     0.10800
S755        S  0.48815906  0.10716495  0.92190039    -0.32600
S756        S  0.63671425  0.94694761  0.00814483    -0.32600
H757        H  0.64792500  0.98221421  0.04088203     0.28800
H758        H  0.51852642  0.11138926  0.88123914     0.28800
H759        H  0.49530900  0.07732133  0.01039035     0.19400
H760        H  0.61851301  0.96704411  0.91851467     0.19400
C761        C  0.99955874  0.00023356  0.52718474    -0.06400
C762        C  0.97463676  0.96100568  0.50664058    -0.17600
C763        C  0.96937738  0.96260347  0.46132463     0.10800
C764        C  0.99065511  0.00363565  0.43655786    -0.06400
C765        C  0.01523165  0.04301282  0.45721979    -0.17600
C766        C  0.02006450  0.04163265  0.50262795     0.10800
S767        S  0.93422793  0.91229625  0.43725538    -0.32600
S768        S  0.05518658  0.09084155  0.52843138    -0.32600
H769        H  0.05910968  0.12386824  0.49184324     0.28800
H770        H  0.91561538  0.94169407  0.40315934     0.28800
H771        H  0.95806830  0.92982898  0.52620809     0.19400
H772        H  0.03235431  0.07370601  0.43740408     0.19400
C773        C  0.99511763  0.99695073  0.93611544    -0.06400
C774        C  0.98443637  0.95146546  0.95879593    -0.17600
C775        C  0.98523722  0.94901982  0.00490823     0.10800
C776        C  0.99699158  0.99316023  0.02828064    -0.06400
C777        C  0.00741869  0.03850434  0.00544314    -0.17600
C778        C  0.00756394  0.04065527  0.95959045     0.10800
S779        S  0.96825271  0.89058173  0.03339853    -0.32600
S780        S  0.02704033  0.09932942  0.93300105    -0.32600
H781        H  0.05585802  0.07636381  0.89658993     0.28800
H782        H  0.96982664  0.85968081  0.99527731     0.28800
H783        H  0.97469452  0.91818411  0.94032989     0.19400
H784        H  0.01727027  0.07219679  0.02336645     0.19400
C785        C  0.77648939  0.16340852  0.54104895    -0.06400
C786        C  0.75998666  0.17065349  0.58694923    -0.17600
C787        C  0.75927328  0.13159093  0.61815539     0.10800
C788        C  0.77088297  0.08197413  0.60399684    -0.06400
C789        C  0.78488642  0.07319421  0.55841879    -0.17600
C790        C  0.78689382  0.11271886  0.52688087     0.10800
S791        S  0.74142058  0.14720954  0.67569527    -0.32600
S792        S  0.79666186  0.09626308  0.46865321    -0.32600
H793        H  0.81189859  0.04553354  0.47424300     0.28800
H794        H  0.76491132  0.10454934  0.69360998     0.28800
H795        H  0.74495936  0.20658894  0.59956808     0.19400
H796        H  0.79099242  0.03445310  0.54723254     0.19400
C797        C  0.76429308  0.43232129  0.59755739    -0.06400
C798        C  0.73128820  0.39104014  0.60578681    -0.17600
C799        C  0.72768519  0.35206801  0.57470601     0.10800
C800        C  0.76165398  0.35028570  0.53513210    -0.06400
C801        C  0.79590233  0.39059785  0.52679386    -0.17600
C802        C  0.79637508  0.43215027  0.55640265     0.10800
S803        S  0.67821195  0.30536763  0.58781549    -0.32600
S804        S  0.83745101  0.48398355  0.53818411    -0.32600
H805        H  0.79622066  0.51930680  0.54164473     0.28800
H806        H  0.67118353  0.29296415  0.54355349     0.28800
H807        H  0.70679319  0.38953526  0.63645068     0.19400
H808        H  0.82264963  0.38965639  0.49711364     0.19400
C809        C  0.68294768  0.25049745  0.42194179    -0.06400
C810        C  0.69238492  0.21414368  0.38792640    -0.17600
C811        C  0.66141582  0.21126544  0.35188687     0.10800
C812        C  0.61713013  0.24292499  0.35034859    -0.06400
C813        C  0.60897683  0.28058301  0.38416964    -0.17600
C814        C  0.64162117  0.28498377  0.41905396     0.10800
S815        S  0.68177072  0.16775325  0.30791982    -0.32600
S816        S  0.62899249  0.33363134  0.46074436    -0.32600
H817        H  0.57671189  0.34143179  0.45318472     0.28800
H818        H  0.65968220  0.19575079  0.27465319     0.28800
H819        H  0.72537359  0.18864800  0.38875550     0.19400
H820        H  0.57603380  0.30609913  0.38430951     0.19400
C821        C  0.83654668  0.26068105  0.39542283    -0.06400
C822        C  0.80520136  0.27586741  0.36203107    -0.17600
C823        C  0.82241965  0.27358628  0.31686682     0.10800
C824        C  0.87392081  0.25823439  0.30310682    -0.06400
C825        C  0.90690011  0.24612007  0.33621081    -0.17600
C826        C  0.88895859  0.24726543  0.38203656     0.10800
S827        S  0.77545195  0.28938409  0.27846671    -0.32600
S828        S  0.93431680  0.23467696  0.42278941    -0.32600
H829        H  0.97953222  0.23846143  0.39358273     0.28800
H830        H  0.78677361  0.24692233  0.25112849     0.28800
H831        H  0.76561279  0.28780476  0.37059849     0.19400
H832        H  0.94672749  0.23582775  0.32604044     0.19400
C833        C  0.76156977  0.15211517  0.03648653    -0.06400
C834        C  0.78869695  0.10930273  0.01933582    -0.17600
C835        C  0.79181729  0.06504486  0.04479241     0.10800
C836        C  0.76961216  0.06396929  0.08972402    -0.06400
C837        C  0.74192684  0.10653589  0.10636632    -0.17600
C838        C  0.73594707  0.14946314  0.08012949     0.10800
S839        S  0.82324303  0.01108595  0.01719464    -0.32600
S840        S  0.69361566  0.19878508  0.10453830    -0.32600
H841        H  0.67894047  0.21859629  0.06443503     0.28800
H842        H  0.78005221  0.97976908  0.02646876     0.28800
H843        H  0.80797244  0.11043132  0.98602877     0.19400
H844        H  0.72394843  0.10588328  0.14002164     0.19400
C845        C  0.77735234  0.41834120  0.10631878    -0.06400
C846        C  0.78813898  0.42793369  0.06044589    -0.17600
C847        C  0.78556999  0.38959248  0.02795137     0.10800
C848        C  0.77296702  0.33922533  0.04115187    -0.06400
C849        C  0.75841444  0.33189126  0.08719680    -0.17600
C850        C  0.76368854  0.36905634  0.11934950     0.10800
S851        S  0.79528726  0.40922710  0.97076407    -0.32600
S852        S  0.75345997  0.35047553  0.17676385    -0.32600
H853        H  0.78480889  0.38816584  0.19315019     0.28800
H854        H  0.75732752  0.37779200  0.95528402     0.28800
H855        H  0.79663764  0.46627905  0.04965649     0.19400
H856        H  0.74218961  0.29667439  0.09941435     0.19400
C857        C  0.67238300  0.24839768  0.92866093    -0.06400
C858        C  0.68054289  0.28203209  0.89261281    -0.17600
C859        C  0.65223767  0.27856060  0.85486293     0.10800
C860        C  0.61142694  0.24336439  0.85356910    -0.06400
C861        C  0.60442457  0.20906835  0.88981324    -0.17600
C862        C  0.63453768  0.21072935  0.92632077     0.10800
S863        S  0.67292189  0.31724181  0.80794541    -0.32600
S864        S  0.62283805  0.16338226  0.96883612    -0.32600
H865        H  0.63558211  0.19430828  0.00397463     0.28800
H866        H  0.65269382  0.28561909  0.77627603     0.28800
H867        H  0.71170511  0.30914826  0.89257351     0.19400
H868        H  0.57417721  0.18119520  0.89073717     0.19400
C869        C  0.82922627  0.23657377  0.89576096    -0.06400
C870        C  0.88113051  0.25281417  0.88748494    -0.17600
C871        C  0.90576938  0.25537690  0.84387293     0.10800
C872        C  0.87692657  0.24723489  0.80739750    -0.06400
C873        C  0.82673696  0.22834756  0.81529128    -0.17600
C874        C  0.80407656  0.21940261  0.85831092     0.10800
S875        S  0.97454908  0.26381086  0.83456604    -0.32600
S876        S  0.74696894  0.18064641  0.86172732    -0.32600
H877        H  0.73053203  0.19269302  0.81980594     0.28800
H878        H  0.98405619  0.26690272  0.87961192     0.28800
H879        H  0.90281107  0.26241792  0.91530866     0.19400
H880        H  0.80619688  0.21807142  0.78694278     0.19400
C881        C  0.40325754  0.73911723  0.61528416    -0.06400
C882        C  0.42639382  0.75676730  0.57433553    -0.17600
C883        C  0.39851580  0.75841111  0.53582767     0.10800
C884        C  0.34604688  0.74328386  0.53825470    -0.06400
C885        C  0.32419650  0.72356005  0.57872078    -0.17600
C886        C  0.35133796  0.72257861  0.61712860     0.10800
S887        S  0.43065027  0.77740615  0.48326709    -0.32600
S888        S  0.31887273  0.70090105  0.66886743    -0.32600
H889        H  0.27021159  0.69215305  0.65306488     0.28800
H890        H  0.47760387  0.79120495  0.49985810     0.28800
H891        H  0.46641547  0.76859477  0.57254402     0.19400
H892        H  0.28561724  0.70814726  0.58012134     0.19400
C893        C  0.14299586  0.75713602  0.64949942    -0.06400
C894        C  0.11659625  0.73447027  0.61590956    -0.17600
C895        C  0.13815475  0.73208219  0.57093560     0.10800
C896        C  0.18822748  0.75224319  0.55865432    -0.06400
C897        C  0.21155344  0.77930243  0.59181293    -0.17600
C898        C  0.19085719  0.78085299  0.63631117     0.10800
S899        S  0.09929351  0.70674284  0.52945774    -0.32600
S900        S  0.23015351  0.81128916  0.67476550    -0.32600
H901        H  0.22904281  0.76981543  0.70386260     0.28800
H902        H  0.05594428  0.69381253  0.55836194     0.28800
H903        H  0.07887847  0.71862639  0.62506938     0.19400
H904        H  0.24875645  0.79679539  0.58437377     0.19400
C905        C  0.25263158  0.57164774  0.34927097    -0.06400
C906        C  0.28672605  0.61258009  0.34242647    -0.17600
C907        C  0.29501171  0.64765272  0.37611726     0.10800
C908        C  0.26285896  0.64817460  0.41709615    -0.06400
C909        C  0.22852341  0.60721806  0.42415404    -0.17600
C910        C  0.22524769  0.56816099  0.39231789     0.10800
S911        S  0.34705993  0.69173629  0.36346715    -0.32600
S912        S  0.18897514  0.51335994  0.41128342    -0.32600
H913        H  0.22610150  0.47862660  0.39218788     0.28800
H914        H  0.37453736  0.67588456  0.39911495     0.28800
H915        H  0.30838640  0.61727756  0.31053454     0.19400
H916        H  0.20537107  0.60366918  0.45543274     0.19400
C917        C  0.25473190  0.83699982  0.41926192    -0.06400
C918        C  0.22855959  0.83638468  0.37963245    -0.17600
C919        C  0.23181076  0.87631521  0.34889058     0.10800
C920        C  0.25452784  0.92188387  0.35956912    -0.06400
C921        C  0.27755720  0.92487648  0.40020556    -0.17600
C922        C  0.28003613  0.88285986  0.42880103     0.10800
S923        S  0.21017001  0.86643128  0.29468030    -0.32600
S924        S  0.31932581  0.89035040  0.47450714    -0.32600
H925        H  0.34500143  0.84379378  0.46635109     0.28800
H926        H  0.24532752  0.89964228  0.27195354     0.28800
H927        H  0.20660063  0.80378565  0.37097159     0.19400
H928        H  0.29561044  0.95990053  0.40899837     0.19400
C929        C  0.41002050  0.73812098  0.10559907    -0.06400
C930        C  0.37304918  0.77789568  0.10905240    -0.17600
C931        C  0.33647409  0.78510623  0.07751447     0.10800
C932        C  0.33432920  0.75055996  0.04182023    -0.06400
C933        C  0.36843811  0.70912057  0.03943004    -0.17600
C934        C  0.40699856  0.70296800  0.06942833     0.10800
S935        S  0.29224590  0.83855340  0.08370226    -0.32600
S936        S  0.45255465  0.65122779  0.05784482    -0.32600
H937        H  0.43595722  0.63549030  0.01694803     0.28800
H938        H  0.30016645  0.84945737  0.12816013     0.28800
H939        H  0.37439766  0.80505323  0.13570739     0.19400
H940        H  0.36585628  0.68229587  0.01257247     0.19400
C941        C  0.17682804  0.74767866  0.06724247    -0.06400
C942        C  0.20883250  0.73558171  0.10107870    -0.17600
C943        C  0.19147594  0.73885060  0.14618769     0.10800
C944        C  0.13903798  0.75077678  0.15949815    -0.06400
C945        C  0.10556561  0.76012470  0.12605086    -0.17600
C946        C  0.12393513  0.75934143  0.08023278     0.10800
S947        S  0.23919351  0.72881868  0.18533725    -0.32600
S948        S  0.07908322  0.77054656  0.03873721    -0.32600
H949        H  0.03384128  0.77286629  0.06807269     0.28800
H950        H  0.22312216  0.77055597  0.21221775     0.28800
H951        H  0.24892780  0.72543656  0.09283223     0.19400
H952        H  0.06511344  0.76785000  0.13597625     0.19400
C953        C  0.25070057  0.65800937  0.92905762    -0.06400
C954        C  0.21374387  0.62084908  0.94101915    -0.17600
C955        C  0.20923694  0.57680418  0.91495079     0.10800
C956        C  0.24102709  0.56994755  0.87410028    -0.06400
C957        C  0.27808683  0.60719905  0.86284380    -0.17600
C958        C  0.28419007  0.64977306  0.88985393     0.10800
S959        S  0.16360828  0.53054742  0.93735886    -0.32600
S960        S  0.33721097  0.69131737  0.87307879    -0.32600
H961        H  0.34634122  0.70594208  0.91649514     0.28800
H962        H  0.20121163  0.49162924  0.93625960     0.28800
H963        H  0.18774666  0.62636018  0.97080554     0.19400
H964        H  0.30374954  0.60234228  0.83311525     0.19400
C965        C  0.23939047  0.92490209  0.85944827    -0.06400
C966        C  0.20443152  0.88469142  0.85846283    -0.17600
C967        C  0.19957101  0.84814845  0.89270865     0.10800
C968        C  0.23501389  0.84741219  0.92626796    -0.06400
C969        C  0.26613708  0.89051168  0.92932452    -0.17600
C970        C  0.26688803  0.92980927  0.89783590     0.10800
S971        S  0.14641312  0.80423687  0.89378119    -0.32600
S972        S  0.29872861  0.98814507  0.90986187    -0.32600
H973        H  0.31883771  0.97287425  0.94951873     0.28800
H974        H  0.11500658  0.83453969  0.86854242     0.28800
H975        H  0.18010398  0.88233228  0.83123133     0.19400
H976        H  0.28829677  0.89515963  0.95754247     0.19400
loop_ 
_geom_bond_atom_site_label_1 
_geom_bond_atom_site_label_2 
_geom_bond_distance 
_geom_bond_site_symmetry_2 
_ccdc_geom_bond_type 
C1            C2   1.549       .  S
C1            C7   1.527       .  S
C1            C5   1.558       .  S
C1          C968   1.559       .  S
C2            H9   1.085   1_556  S
C2            C3   1.381   1_556  D
C3            C4   1.556       .  S
C3          C941   1.521       .  S
C4            C8   1.561   1_554  S
C4            C6   1.548       .  S
C4           H10   1.110       .  S
C5           H11   1.082       .  S
C5            C6   1.371   1_556  D
C6          C932   1.508       .  S
C7           H12   1.086       .  S
C7            C8   1.356       .  D
C8          C953   1.509       .  S
C13          C14   1.541       .  S
C13          C19   1.520       .  S
C13          C17   1.564       .  S
C13         C908   1.567       .  S
C14          H21   1.086       .  S
C14          C15   1.371       .  D
C15          C16   1.565       .  S
C15         C884   1.514       .  S
C16          C20   1.572       .  S
C16          C18   1.558       .  S
C16          H22   1.102       .  S
C17          H23   1.079       .  S
C17          C18   1.387       .  D
C18         C896   1.536       .  S
C19          H24   1.082       .  S
C19          C20   1.358       .  D
C20         C917   1.534       .  S
C25          C26   1.554   1_554  S
C25          C31   1.527       .  S
C25          C29   1.548   1_554  S
C25         C848   1.561       .  S
C26          H33   1.083       .  S
C26          C27   1.391       .  D
C27          C28   1.559       .  S
C27         C869   1.522       .  S
C28          C32   1.549   1_556  S
C28          C30   1.541       .  S
C28          H34   1.102       .  S
C29          H35   1.086       .  S
C29          C30   1.370       .  D
C30         C857   1.501       .  S
C31          H36   1.085       .  S
C31          C32   1.343       .  D
C32         C833   1.497       .  S
C37          C38   1.546       .  S
C37          C43   1.525       .  S
C37          C41   1.555       .  S
C37         C785   1.560       .  S
C38          H45   1.086       .  S
C38          C39   1.370       .  D
C39          C40   1.546       .  S
C39         C809   1.506       .  S
C40          C44   1.559       .  S
C40          C42   1.562       .  S
C40          H46   1.110       .  S
C41          H47   1.082       .  S
C41          C42   1.387       .  D
C42         C821   1.519       .  S
C43          H48   1.084       .  S
C43          C44   1.346       .  D
C44         C800   1.503       .  S
N49          C53   1.369       .  A
N49          C50   1.369       .  A
N49         C944   1.457       .  S
C50          C51   1.380       .  A
C50         C434   1.475       .  S
C51          C52   1.349       .  A
C51          H54   1.083       .  S
C52          C53   1.385       .  A
C52          H55   1.081       .  S
C53         C143   1.482       .  S
N56          C60   1.375       .  A
N56          C57   1.372       .  A
N56         C893   1.465       .  S
C57          C58   1.379       .  A
C57         C213   1.489       .  S
C58          C59   1.358       .  A
C58          H61   1.080       .  S
C59          C60   1.387       .  A
C59          H62   1.083       .  S
C60         C520   1.498       .  S
N63          C67   1.360       .  A
N63          C64   1.361       .  A
N63         C845   1.452       .  S
C64          C65   1.391       .  A
C64         C447   1.479       .  S
C65          C66   1.360       .  A
C65          H68   1.083       .  S
C66          C67   1.371       .  A
C66          H69   1.079       .  S
C67         C580   1.466       .  S
N70          C74   1.371       .  A
N70          C71   1.372       .  A
N70         C797   1.464       .  S
C71          C72   1.383       .  A
C71         C499   1.495       .  S
C72          C73   1.360       .  A
C72          H75   1.083       .  S
C73          C74   1.380       .  A
C73          H76   1.083       .  S
C74         C651   1.495       .  S
N77          C81   1.377       .  A
N77          C78   1.378       .  A
N77         C929   1.475       .  S
C78          C79   1.380       .  A
C78         C593   1.503       .  S
C79          C80   1.352       .  A
C79          H82   1.083       .  S
C80          C81   1.382       .  A
C80          H83   1.079       .  S
C81         C289   1.508       .  S
N84          C88   1.373       .  A
N84          C85   1.375       .  A
N84         C881   1.458       .  S
C85          C86   1.379       .  A
C85         C353   1.478       .  S
C86          C87   1.356       .  A
C86          H89   1.081       .  S
C87          C88   1.374       .  A
C87          H90   1.082       .  S
C88         C666   1.476       .  S
N91          C95   1.357   1_545  A
N91          C92   1.359   1_545  A
N91         C836   1.450       .  S
C92          C93   1.385       .  A
C92         C155   1.474   1_565  S
C93          C94   1.362       .  A
C93          H96   1.083       .  S
C94          C95   1.382       .  A
C94          H97   1.082       .  S
C95         C288   1.479       .  S
N98         C102   1.356       .  A
N98          C99   1.360   1_545  A
N98         C788   1.446       .  S
C99         C100   1.381       .  A
C99         C207   1.470       .  S
C100        C101   1.361       .  A
C100        H103   1.083       .  S
C101        C102   1.380   1_565  A
C101        H104   1.081       .  S
C102        C359   1.473       .  S
N105        C109   1.372       .  A
N105        C106   1.369       .  A
N105        C824   1.457       .  S
C106        C107   1.382       .  A
C106        C439   1.488       .  S
C107        C108   1.360       .  A
C107        H110   1.083       .  S
C108        C109   1.385       .  A
C108        H111   1.083       .  S
C109        C162   1.493       .  S
N112        C116   1.372       .  A
N112        C113   1.368       .  A
N112        C872   1.449       .  S
C113        C114   1.378       .  A
C113        C208   1.484       .  S
C114        C115   1.358       .  A
C114        H117   1.083       .  S
C115        C116   1.388       .  A
C115        H118   1.083       .  S
C116        C501   1.498       .  S
Zr119       O120   2.438       .  S
Zr119       O121   2.443       .  S
Zr119       O122   2.426       .  S
Zr119       O125   2.397       .  S
Zr119       O127   2.371       .  S
Zr119       O128   2.382   1_565  S
Zr119       O129   2.390   1_455  S
Zr119       O130   2.404   1_455  S
O120        H176   0.990       .  S
O120        H184   0.990       .  S
O121        C141   1.282       .  A
O122        C143   1.286       .  A
O123       Zr133   2.396       .  S
O123        C142   1.279       .  A
O124       Zr132   2.438       .  S
O124        C143   1.281       .  A
O125        C142   1.279   1_465  A
O126       Zr134   2.445       .  S
O126        C141   1.289   1_545  A
O127       Zr132   2.396       .  S
O127       Zr134   2.370   1_565  S
O128       Zr133   2.403   1_455  S
O128       Zr134   2.362       .  S
O128        H163   0.966       .  S
O129       Zr132   2.397   1_655  S
O129       Zr149   2.393       .  S
O129        H166   0.965       .  S
O130       Zr133   2.399   1_565  S
O130       Zr149   2.386       .  S
Zr131       O156   2.439       .  S
Zr131       O150   2.438       .  S
Zr131       O158   2.439       .  S
Zr131       O146   2.398       .  S
Zr131       O137   2.389   1_655  S
Zr131       O138   2.414   1_655  S
Zr131       O139   2.376   1_545  S
Zr131       O140   2.370       .  S
Zr132       O151   2.435       .  S
Zr132       O144   2.435       .  S
Zr132       O145   2.415       .  S
Zr132       O138   2.407   1_565  S
Zr132       O139   2.380   1_455  S
Zr133       O135   2.438       .  S
Zr133       O157   2.438       .  S
Zr133       O159   2.450       .  S
Zr133       O137   2.388   1_655  S
Zr133       O140   2.383       .  S
Zr134       O160   2.436       .  S
Zr134       O161   2.435       .  S
Zr134       O136   2.437       .  S
Zr134       O137   2.407       .  S
Zr134       O138   2.404       .  S
O135        H172   0.990       .  S
O136        H167   0.990       .  S
O136        H181   0.990       .  S
O138        H164   0.966       .  S
O139       Zr149   2.357       .  S
O140       Zr149   2.380   1_545  S
O140        H165   0.966       .  S
C141        C252   1.490       .  S
C142        C764   1.441       .  S
O144        H180   0.991       .  S
O145        C147   1.282   1_455  A
O146        C147   1.280   1_545  A
C147        C776   1.457       .  S
O148       Zr149   2.434       .  S
O148        H177   0.990       .  S
Zr149       O152   2.439       .  S
Zr149       O153   2.438       .  S
Zr149       O154   2.418       .  S
O150        C155   1.282       .  A
O151        H168   0.989       .  S
O151        H183   0.990   1_455  S
O152        H169   0.990       .  S
O153        H173   0.990       .  S
O153        H182   0.990       .  S
O154        C155   1.284   1_565  A
O156        H175   0.991   1_655  S
O156        H179   0.990   1_655  S
O157        H171   0.990   1_655  S
O157        H178   0.990   1_655  S
O158        C162   1.290       .  A
O159        C162   1.284       .  A
O160        H170   0.990       .  S
O161        H174   0.990       .  S
Zr185       O186   2.441       .  S
Zr185       O187   2.421       .  S
Zr185       O188   2.397       .  S
Zr185       O191   2.416       .  S
Zr185       O193   2.380   1_545  S
Zr185       O194   2.373       .  S
Zr185       O195   2.404   1_655  S
Zr185       O196   2.387       .  S
O186        H242   0.991       .  S
O186        H250   0.990       .  S
O187        C207   1.278   1_545  A
O188        C209   1.277   1_645  A
O189       Zr199   2.454       .  S
O189        C208   1.285       .  A
O190       Zr198   2.399       .  S
O190        C209   1.278       .  A
O191        C208   1.283       .  A
O192       Zr200   2.423       .  S
O192        C207   1.283       .  A
O193       Zr198   2.396   1_655  S
O193       Zr200   2.362       .  S
O194       Zr199   2.385       .  S
O194       Zr200   2.380   1_545  S
O194        H229   0.966       .  S
O195       Zr198   2.407   1_545  S
O195       Zr215   2.388       .  S
O195        H232   0.966       .  S
O196       Zr199   2.390       .  S
O196       Zr215   2.387   1_655  S
Zr197       O222   2.442       .  S
Zr197       O216   2.446       .  S
Zr197       O224   2.396       .  S
Zr197       O212   2.445       .  S
Zr197       O203   2.412   1_455  S
Zr197       O204   2.390   1_455  S
Zr197       O205   2.372       .  S
Zr197       O206   2.390   1_565  S
Zr198       O217   2.436       .  S
Zr198       O210   2.436       .  S
Zr198       O211   2.445       .  S
Zr198       O204   2.391   1_455  S
Zr198       O205   2.385       .  S
Zr199       O201   2.435       .  S
Zr199       O223   2.438       .  S
Zr199       O225   2.423       .  S
Zr199       O203   2.401   1_545  S
Zr199       O206   2.393   1_655  S
Zr200       O226   2.436       .  S
Zr200       O227   2.435       .  S
Zr200       O202   2.440       .  S
Zr200       O203   2.399       .  S
Zr200       O204   2.395       .  S
O201        H238   0.991       .  S
O202        H233   0.990       .  S
O202        H247   0.990       .  S
O204        H230   0.966       .  S
O205       Zr215   2.379   1_565  S
O206       Zr215   2.363       .  S
O206        H231   0.965       .  S
C209        C761   1.441   1_465  S
O210        H246   0.990       .  S
O211        C213   1.283       .  A
O212        C213   1.290       .  A
O214       Zr215   2.435       .  S
O214        H243   0.990       .  S
Zr215       O218   2.435       .  S
Zr215       O219   2.439       .  S
Zr215       O220   2.408       .  S
O216        C221   1.283       .  A
O217        H234   0.990       .  S
O217        H249   0.990       .  S
O218        H235   0.990       .  S
O219        H239   0.990       .  S
O219        H248   0.990       .  S
O220        C221   1.283   1_545  A
C221        C259   1.485   1_565  S
O222        H241   0.991   1_455  S
O222        H245   0.990       .  S
O223        H237   0.990       .  S
O223        H244   0.991       .  S
O224        C228   1.279   1_455  A
O225        C228   1.283   1_545  A
O226        H236   0.990       .  S
O227        H240   0.990       .  S
C228        C773   1.454       .  S
N251        C255   1.358       .  A
N251        C252   1.370       .  A
N251        C920   1.454       .  S
C252        C253   1.384   1_565  A
C253        C254   1.360       .  A
C253        H256   1.083       .  S
C254        C255   1.380   1_545  A
C254        H257   1.082       .  S
C255        C293   1.482       .  S
N258        C262   1.366       .  A
N258        C259   1.365   1_565  A
N258        C965   1.459       .  S
C259        C260   1.391       .  A
C260        C261   1.358       .  A
C260        H263   1.083       .  S
C261        C262   1.373   1_545  A
C261        H264   1.082       .  S
C262        C354   1.471       .  S
Zr265       O266   2.435       .  S
Zr265       O267   2.441       .  S
Zr265       O268   2.435       .  S
Zr265       O271   2.387       .  S
Zr265       O273   2.371       .  S
Zr265       O274   2.379   1_565  S
Zr265       O275   2.405       .  S
Zr265       O276   2.409       .  S
O266        H322   0.990       .  S
O266        H330   0.990       .  S
O267        C287   1.284   1_565  A
O268        C289   1.287       .  A
O269       Zr279   2.483       .  S
O269        C288   1.294   1_545  A
O270       Zr278   2.498       .  S
O270        C289   1.295       .  A
O271        C288   1.278       .  A
O272       Zr280   2.449       .  S
O272        C287   1.288       .  A
O273       Zr278   2.407       .  S
O273       Zr280   2.382   1_565  S
O274       Zr279   2.390       .  S
O274       Zr280   2.367       .  S
O274        H309   0.965       .  S
O275       Zr278   2.409       .  S
O275       Zr295   2.403       .  S
O275        H312   0.965       .  S
O276       Zr279   2.402   1_565  S
O276       Zr295   2.404       .  S
Zr277       O302   2.438       .  S
Zr277       O296   2.424       .  S
Zr277       O304   2.434       .  S
Zr277       O292   2.385       .  S
Zr277       O283   2.396       .  S
Zr277       O284   2.408       .  S
Zr277       O285   2.376   1_545  S
Zr277       O286   2.369       .  S
Zr278       O297   2.438       .  S
Zr278       O290   2.434       .  S
Zr278       O291   2.496       .  S
Zr278       O284   2.403   1_565  S
Zr278       O285   2.401       .  S
Zr279       O281   2.434       .  S
Zr279       O303   2.431       .  S
Zr279       O305   2.495       .  S
Zr279       O283   2.398       .  S
Zr279       O286   2.398       .  S
Zr280       O306   2.435       .  S
Zr280       O307   2.436       .  S
Zr280       O282   2.439       .  S
Zr280       O283   2.410       .  S
Zr280       O284   2.397       .  S
O281        H318   0.990       .  S
O282        H313   0.990       .  S
O282        H327   0.990   1_545  S
O284        H310   0.966       .  S
O285       Zr295   2.364       .  S
O286       Zr295   2.378   1_545  S
O286        H311   0.966       .  S
C287        C749   1.505       .  S
O290        H326   0.990       .  S
O291        C293   1.297       .  A
O292        C293   1.277   1_545  A
O294       Zr295   2.435       .  S
O294        H323   0.990       .  S
Zr295       O298   2.435       .  S
Zr295       O299   2.440       .  S
Zr295       O300   2.450       .  S
O296        C301   1.283   1_545  A
O297        H314   0.990       .  S
O297        H329   0.990       .  S
O298        H315   0.990       .  S
O299        H319   0.990       .  S
O299        H328   0.990       .  S
O300        C301   1.285       .  A
C301        C737   1.506       .  S
O302        H321   0.990       .  S
O302        H325   0.990       .  S
O303        H317   0.990       .  S
O303        H324   0.990       .  S
O304        C308   1.288       .  A
O305        C308   1.293       .  A
O306        H316   0.990       .  S
O307        H320   0.990       .  S
C308        C401   1.515       .  S
Zr331       O332   2.438       .  S
Zr331       O333   2.452       .  S
Zr331       O334   2.478       .  S
Zr331       O337   2.474       .  S
Zr331       O339   2.383       .  S
Zr331       O340   2.396       .  S
Zr331       O341   2.427   1_565  S
Zr331       O342   2.403   1_565  S
O332        H388   0.990       .  S
O332        H396   0.990       .  S
O333        C353   1.284       .  A
O334        C355   1.291       .  A
O335       Zr345   2.416       .  S
O335        C354   1.274       .  A
O336       Zr344   2.398   1_565  S
O336        C355   1.277       .  A
O337        C354   1.294       .  A
O338       Zr346   2.455       .  S
O338        C353   1.285       .  A
O339       Zr344   2.393   1_565  S
O339       Zr346   2.370       .  S
O340       Zr345   2.389       .  S
O340       Zr346   2.364       .  S
O340        H375   0.965       .  S
O341       Zr344   2.388       .  S
O341       Zr361   2.410       .  S
O341        H378   0.966       .  S
O342       Zr345   2.391   1_545  S
O342       Zr361   2.391       .  S
Zr343       O368   2.443       .  S
Zr343       O362   2.490       .  S
Zr343       O370   2.472       .  S
Zr343       O358   2.494       .  S
Zr343       O349   2.434   1_545  S
Zr343       O350   2.429   1_545  S
Zr343       O351   2.397       .  S
Zr343       O352   2.385       .  S
Zr344       O363   2.436       .  S
Zr344       O356   2.436   1_545  S
Zr344       O357   2.402       .  S
Zr344       O350   2.401   1_545  S
Zr344       O351   2.402       .  S
Zr345       O347   2.433   1_565  S
Zr345       O369   2.437       .  S
Zr345       O371   2.403   1_565  S
Zr345       O349   2.395       .  S
Zr345       O352   2.384   1_565  S
Zr346       O372   2.435       .  S
Zr346       O373   2.436       .  S
Zr346       O348   2.437       .  S
Zr346       O349   2.415       .  S
Zr346       O350   2.383       .  S
O347        H384   0.990       .  S
O348        H379   0.991       .  S
O348        H393   0.990       .  S
O350        H376   0.962       .  S
O351       Zr361   2.378       .  S
O352       Zr361   2.373       .  S
O352        H377   0.964       .  S
C355        C740   1.478       .  S
O356        H392   0.990       .  S
O357        C359   1.273       .  A
O358        C359   1.295       .  A
O360       Zr361   2.435       .  S
O360        H389   0.990       .  S
Zr361       O364   2.436       .  S
Zr361       O365   2.438       .  S
Zr361       O366   2.430       .  S
O362        C367   1.290       .  A
O363        H380   0.990       .  S
O363        H395   0.990       .  S
O364        H381   0.990       .  S
O365        H385   0.990       .  S
O365        H394   0.990       .  S
O366        C367   1.285       .  A
C367        C405   1.501       .  S
O368        H387   0.990       .  S
O368        H391   0.991       .  S
O369        H383   0.990       .  S
O369        H390   0.991       .  S
O370        C374   1.290       .  A
O371        C374   1.278       .  A
O372        H382   0.990       .  S
O373        H386   0.990       .  S
C374        C752   1.479       .  S
N397        C401   1.381       .  A
N397        C398   1.374       .  A
N397        C812   1.474       .  S
C398        C399   1.377       .  A
C398        C579   1.494       .  S
C399        C400   1.354       .  A
C399        H402   1.083       .  S
C400        C401   1.388       .  A
C400        H403   1.082       .  S
N404        C408   1.376       .  A
N404        C405   1.379       .  A
N404        C860   1.475       .  S
C405        C406   1.381       .  A
C406        C407   1.353       .  A
C406        H409   1.083       .  S
C407        C408   1.387       .  A
C407        H410   1.081       .  S
C408        C647   1.510       .  S
Zr411       O412   2.437       .  S
Zr411       O413   2.420       .  S
Zr411       O414   2.403       .  S
Zr411       O417   2.414       .  S
Zr411       O419   2.399       .  S
Zr411       O420   2.396       .  S
Zr411       O421   2.406   1_455  S
Zr411       O422   2.383       .  S
O412        H468   0.990       .  S
O412        H476   0.990   1_455  S
O413        C433   1.268       .  A
O414        C435   1.280   1_455  A
O415       Zr425   2.430       .  S
O415        C434   1.279       .  A
O416       Zr424   2.406       .  S
O416        C435   1.280       .  A
O417        C434   1.285       .  A
O418       Zr426   2.448       .  S
O418        C433   1.277       .  A
O419       Zr424   2.390   1_455  S
O419       Zr426   2.361       .  S
O420       Zr425   2.385       .  S
O420       Zr426   2.377       .  S
O420        H455   0.967       .  S
O421       Zr424   2.410       .  S
O421       Zr441   2.384       .  S
O421        H458   0.966       .  S
O422       Zr425   2.395       .  S
O422       Zr441   2.383   1_455  S
Zr423       O448   2.441       .  S
Zr423       O442   2.437       .  S
Zr423       O450   2.407       .  S
Zr423       O438   2.436       .  S
Zr423       O429   2.405   1_655  S
Zr423       O430   2.392   1_655  S
Zr423       O431   2.374       .  S
Zr423       O432   2.388       .  S
Zr424       O443   2.441       .  S
Zr424       O436   2.436       .  S
Zr424       O437   2.448       .  S
Zr424       O430   2.394   1_655  S
Zr424       O431   2.384       .  S
Zr425       O427   2.436       .  S
Zr425       O449   2.438       .  S
Zr425       O451   2.405       .  S
Zr425       O429   2.403       .  S
Zr425       O432   2.390   1_455  S
Zr426       O452   2.439       .  S
Zr426       O453   2.436       .  S
Zr426       O428   2.442       .  S
Zr426       O429   2.402       .  S
Zr426       O430   2.396       .  S
O427        H464   0.991       .  S
O428        H459   0.990       .  S
O428        H473   0.990       .  S
O430        H456   0.967       .  S
O431       Zr441   2.380       .  S
O432       Zr441   2.361       .  S
O432        H457   0.965       .  S
C433        C544   1.469       .  S
C435        C713   1.446       .  S
O436        H472   0.990   1_655  S
O437        C439   1.284       .  A
O438        C439   1.288       .  A
O440       Zr441   2.437       .  S
O440        H469   0.990       .  S
Zr441       O444   2.438       .  S
Zr441       O445   2.437       .  S
Zr441       O446   2.405       .  S
O442        C447   1.282       .  A
O443        H460   0.990       .  S
O443        H475   0.990       .  S
O444        H461   0.990       .  S
O445        H465   0.990       .  S
O445        H474   0.990       .  S
O446        C447   1.282       .  A
O448        H467   0.991   1_655  S
O448        H471   0.990   1_655  S
O449        H463   0.990       .  S
O449        H470   0.990       .  S
O450        C454   1.281   1_655  A
O451        C454   1.279       .  A
O452        H462   0.990       .  S
O453        H466   0.990       .  S
C454        C725   1.451       .  S
Zr477       O478   2.439       .  S
Zr477       O479   2.459       .  S
Zr477       O480   2.429       .  S
Zr477       O483   2.391       .  S
Zr477       O485   2.370       .  S
Zr477       O486   2.383       .  S
Zr477       O487   2.396   1_655  S
Zr477       O488   2.414   1_655  S
O478        H534   0.990       .  S
O478        H542   0.990       .  S
O479        C499   1.284       .  A
O480        C501   1.287       .  A
O481       Zr491   2.397       .  S
O481        C500   1.279       .  A
O482       Zr490   2.467       .  S
O482        C501   1.287       .  A
O483        C500   1.278   1_655  A
O484       Zr492   2.442       .  S
O484        C499   1.289       .  A
O485       Zr490   2.395       .  S
O485       Zr492   2.374       .  S
O486       Zr491   2.398   1_655  S
O486       Zr492   2.363       .  S
O486        H521   0.965       .  S
O487       Zr490   2.388   1_455  S
O487       Zr507   2.405       .  S
O487        H524   0.967       .  S
O488       Zr491   2.398       .  S
O488       Zr507   2.394       .  S
Zr489       O514   2.439       .  S
Zr489       O508   2.429       .  S
Zr489       O516   2.443       .  S
Zr489       O504   2.399       .  S
Zr489       O495   2.387   1_455  S
Zr489       O496   2.416   1_455  S
Zr489       O497   2.377       .  S
Zr489       O498   2.373       .  S
Zr490       O509   2.425   1_655  S
Zr490       O502   2.435       .  S
Zr490       O503   2.414       .  S
Zr490       O496   2.410       .  S
Zr490       O497   2.378   1_655  S
Zr491       O493   2.435       .  S
Zr491       O515   2.435       .  S
Zr491       O517   2.450       .  S
Zr491       O495   2.390   1_455  S
Zr491       O498   2.382       .  S
Zr492       O518   2.436       .  S
Zr492       O519   2.434       .  S
Zr492       O494   2.437       .  S
Zr492       O495   2.408       .  S
Zr492       O496   2.396       .  S
O493        H530   0.990       .  S
O494        H525   0.990       .  S
O494        H539   0.990       .  S
O496        H522   0.966       .  S
O497       Zr507   2.351       .  S
O498       Zr507   2.375       .  S
O498        H523   0.966       .  S
C500        C716   1.442       .  S
O502        H538   0.990       .  S
O503        C505   1.282   1_655  A
O504        C505   1.280       .  A
C505        C728   1.454       .  S
O506       Zr507   2.437       .  S
O506        H535   0.990       .  S
Zr507       O510   2.438       .  S
Zr507       O511   2.437       .  S
Zr507       O512   2.447       .  S
O508        C513   1.280       .  A
O509        H526   0.988       .  S
O509        H541   0.989       .  S
O510        H527   0.990       .  S
O511        H531   0.990       .  S
O511        H540   0.990       .  S
O512        C513   1.290       .  A
C513        C551   1.481       .  S
O514        H533   0.991       .  S
O514        H537   0.990   1_455  S
O515        H529   0.990   1_455  S
O515        H536   0.990   1_455  S
O516        C520   1.290       .  A
O517        C520   1.283       .  A
O518        H528   0.990       .  S
O519        H532   0.990       .  S
N543        C547   1.373       .  A
N543        C544   1.374       .  A
N543        C905   1.474       .  S
C544        C545   1.378       .  A
C545        C546   1.347       .  A
C545        H548   1.080       .  S
C546        C547   1.375       .  A
C546        H549   1.083       .  S
C547        C585   1.460       .  S
N550        C554   1.363       .  A
N550        C551   1.363       .  A
N550        C956   1.466       .  S
C551        C552   1.383       .  A
C552        C553   1.362       .  A
C552        H555   1.083       .  S
C553        C554   1.383       .  A
C553        H556   1.083       .  S
C554        C646   1.484       .  S
Zr557       O558   2.439       .  S
Zr557       O559   2.478       .  S
Zr557       O560   2.462       .  S
Zr557       O563   2.478       .  S
Zr557       O565   2.383       .  S
Zr557       O566   2.396       .  S
Zr557       O567   2.439       .  S
Zr557       O568   2.405       .  S
O558        H614   0.990       .  S
O558        H622   0.990       .  S
O559        C579   1.288       .  A
O560        C581   1.287       .  A
O561       Zr571   2.398       .  S
O561        C580   1.268       .  A
O562       Zr570   2.403       .  S
O562        C581   1.276       .  A
O563        C580   1.293       .  A
O564       Zr572   2.420       .  S
O564        C579   1.283       .  A
O565       Zr570   2.390       .  S
O565       Zr572   2.367       .  S
O566       Zr571   2.397       .  S
O566       Zr572   2.369       .  S
O566        H601   0.965       .  S
O567       Zr570   2.387       .  S
O567       Zr587   2.412       .  S
O567        H604   0.966       .  S
O568       Zr571   2.388       .  S
O568       Zr587   2.391       .  S
Zr569       O594   2.442       .  S
Zr569       O588   2.477       .  S
Zr569       O596   2.432       .  S
Zr569       O584   2.462       .  S
Zr569       O575   2.424       .  S
Zr569       O576   2.414       .  S
Zr569       O577   2.390       .  S
Zr569       O578   2.387       .  S
Zr570       O589   2.434       .  S
Zr570       O582   2.437       .  S
Zr570       O583   2.401       .  S
Zr570       O576   2.406       .  S
Zr570       O577   2.397       .  S
Zr571       O573   2.437       .  S
Zr571       O595   2.439       .  S
Zr571       O597   2.394       .  S
Zr571       O575   2.382       .  S
Zr571       O578   2.392       .  S
Zr572       O598   2.437       .  S
Zr572       O599   2.435       .  S
Zr572       O574   2.437       .  S
Zr572       O575   2.393       .  S
Zr572       O576   2.387       .  S
O573        H610   0.990       .  S
O574        H605   0.990       .  S
O574        H619   0.990       .  S
O576        H602   0.961       .  S
O577       Zr587   2.374       .  S
O578       Zr587   2.378       .  S
O578        H603   0.966       .  S
C581        C689   1.488       .  S
O582        H618   0.991       .  S
O583        C585   1.274       .  A
O584        C585   1.291       .  A
O586       Zr587   2.436       .  S
O586        H615   0.991       .  S
Zr587       O590   2.434       .  S
Zr587       O591   2.437       .  S
Zr587       O592   2.440       .  S
O588        C593   1.287       .  A
O589        H606   0.990       .  S
O589        H621   0.990       .  S
O590        H607   0.990       .  S
O591        H611   0.991       .  S
O591        H620   0.990       .  S
O592        C593   1.287       .  A
O594        H613   0.991       .  S
O594        H617   0.990       .  S
O595        H609   0.990       .  S
O595        H616   0.990       .  S
O596        C600   1.283       .  A
O597        C600   1.278       .  A
O598        H608   0.990       .  S
O599        H612   0.991       .  S
C600        C701   1.459       .  S
Zr623       O624   2.438       .  S
Zr623       O625   2.410       .  S
Zr623       O626   2.419       .  S
Zr623       O629   2.414       .  S
Zr623       O631   2.375       .  S
Zr623       O632   2.376       .  S
Zr623       O633   2.402       .  S
Zr623       O634   2.401       .  S
O624        H680   0.990       .  S
O624        H688   0.990       .  S
O625        C645   1.281       .  A
O626        C647   1.284       .  A
O627       Zr637   2.471       .  S
O627        C646   1.291       .  A
O628       Zr636   2.506       .  S
O628        C647   1.296       .  A
O629        C646   1.282       .  A
O630       Zr638   2.420       .  S
O630        C645   1.280       .  A
O631       Zr636   2.398       .  S
O631       Zr638   2.378       .  S
O632       Zr637   2.385       .  S
O632       Zr638   2.371       .  S
O632        H667   0.965       .  S
O633       Zr636   2.404       .  S
O633       Zr653   2.396       .  S
O633        H670   0.965       .  S
O634       Zr637   2.388       .  S
O634       Zr653   2.399       .  S
Zr635       O660   2.441       .  S
Zr635       O654   2.430       .  S
Zr635       O662   2.474       .  S
Zr635       O650   2.440       .  S
Zr635       O641   2.402       .  S
Zr635       O642   2.420       .  S
Zr635       O643   2.388       .  S
Zr635       O644   2.389       .  S
Zr636       O655   2.433       .  S
Zr636       O648   2.435       .  S
Zr636       O649   2.474       .  S
Zr636       O642   2.417       .  S
Zr636       O643   2.405       .  S
Zr637       O639   2.434       .  S
Zr637       O661   2.434       .  S
Zr637       O663   2.437       .  S
Zr637       O641   2.402       .  S
Zr637       O644   2.409       .  S
Zr638       O664   2.435       .  S
Zr638       O665   2.435       .  S
Zr638       O640   2.435       .  S
Zr638       O641   2.388       .  S
Zr638       O642   2.389       .  S
O639        H676   0.990       .  S
O640        H671   0.990       .  S
O640        H685   0.990       .  S
O642        H668   0.965       .  S
O643       Zr653   2.376       .  S
O644       Zr653   2.378       .  S
O644        H669   0.965       .  S
C645        C704   1.481       .  S
O648        H684   0.990       .  S
O649        C651   1.291       .  A
O650        C651   1.287       .  A
O652       Zr653   2.437       .  S
O652        H681   0.990       .  S
Zr653       O656   2.434       .  S
Zr653       O657   2.438       .  S
Zr653       O658   2.425       .  S
O654        C659   1.282       .  A
O655        H672   0.990       .  S
O655        H687   0.990       .  S
O656        H673   0.990       .  S
O657        H677   0.990       .  S
O657        H686   0.990       .  S
O658        C659   1.282       .  A
C659        C692   1.486       .  S
O660        H679   0.991       .  S
O660        H683   0.990       .  S
O661        H675   0.990       .  S
O661        H682   0.989       .  S
O662        C666   1.290       .  A
O663        C666   1.279       .  A
O664        H674   0.990       .  S
O665        H678   0.990       .  S
C689        C690   1.409       .  A
C689        C694   1.412       .  A
C690        C691   1.401       .  A
C690        H699   1.083       .  S
C691        C692   1.412       .  A
C691        S695   1.809       .  S
C692        C693   1.408       .  A
C693        C694   1.404       .  A
C693        H700   1.084       .  S
C694        S696   1.798       .  S
S695        H698   1.406       .  S
S696        H697   1.408       .  S
C701        C702   1.399       .  A
C701        C706   1.406       .  A
C702        C703   1.391   1_554  A
C702        H711   1.085       .  S
C703        C704   1.417       .  A
C703        S707   1.801       .  S
C704        C705   1.410       .  A
C705        C706   1.396   1_556  A
C705        H712   1.084       .  S
C706        S708   1.802       .  S
S707        H710   1.406       .  S
S708        H709   1.403       .  S
C713        C714   1.399   1_655  A
C713        C718   1.408       .  A
C714        C715   1.388       .  A
C714        H723   1.084       .  S
C715        C716   1.408       .  A
C715        S719   1.805       .  S
C716        C717   1.398   1_455  A
C717        C718   1.385       .  A
C717        H724   1.085       .  S
C718        S720   1.802       .  S
S719        H722   1.407       .  S
S720        H721   1.406       .  S
C725        C726   1.399       .  A
C725        C730   1.411       .  A
C726        C727   1.392   1_554  A
C726        H735   1.083       .  S
C727        C728   1.409       .  A
C727        S731   1.807       .  S
C728        C729   1.399       .  A
C729        C730   1.388   1_556  A
C729        H736   1.084       .  S
C730        S732   1.803   1_455  S
S731        H734   1.407       .  S
S732        H733   1.406       .  S
C737        C738   1.414       .  A
C737        C742   1.423       .  A
C738        C739   1.403       .  A
C738        H747   1.083   1_565  S
C739        C740   1.407       .  A
C739        S743   1.801   1_565  S
C740        C741   1.403       .  A
C741        C742   1.404       .  A
C741        H748   1.084       .  S
C742        S744   1.801       .  S
S743        H746   1.406       .  S
S744        H745   1.408       .  S
C749        C750   1.408   1_554  A
C749        C754   1.426   1_544  A
C750        C751   1.397       .  A
C750        H759   1.083   1_556  S
C751        C752   1.412       .  A
C751        S755   1.805       .  S
C752        C753   1.401   1_545  A
C753        C754   1.409       .  A
C753        H760   1.084       .  S
C754        S756   1.801   1_556  S
S755        H758   1.404       .  S
S756        H757   1.407       .  S
C761        C762   1.398   1_545  A
C761        C766   1.405   1_655  A
C762        C763   1.388       .  A
C762        H771   1.084       .  S
C763        C764   1.407   1_565  A
C763        S767   1.805       .  S
C764        C765   1.398   1_655  A
C765        C766   1.389       .  A
C765        H772   1.084       .  S
C766        S768   1.807       .  S
S767        H770   1.407       .  S
S768        H769   1.407       .  S
C773        C774   1.402       .  A
C773        C778   1.408   1_665  A
C774        C775   1.397   1_556  A
C774        H783   1.083       .  S
C775        C776   1.411       .  A
C775        S779   1.808       .  S
C776        C777   1.400   1_665  A
C777        C778   1.386   1_554  A
C777        H784   1.084       .  S
C778        S780   1.803       .  S
S779        H782   1.407   1_554  S
S780        H781   1.406       .  S
C785        C786   1.427       .  A
C785        C790   1.420       .  A
C786        C787   1.398       .  A
C786        H795   1.078       .  S
C787        C788   1.398       .  A
C787        S791   1.805       .  S
C788        C789   1.411       .  A
C789        C790   1.413       .  A
C789        H796   1.082       .  S
C790        S792   1.806       .  S
S791        H794   1.406       .  S
S792        H793   1.407       .  S
C797        C798   1.401       .  A
C797        C802   1.433       .  A
C798        C799   1.401       .  A
C798        H807   1.077       .  S
C799        C800   1.421       .  A
C799        S803   1.806       .  S
C800        C801   1.401       .  A
C801        C802   1.415       .  A
C801        H808   1.084       .  S
C802        S804   1.799       .  S
S803        H806   1.404       .  S
S804        H805   1.407       .  S
C809        C810   1.408       .  A
C809        C814   1.406       .  A
C810        C811   1.410       .  A
C810        H819   1.084       .  S
C811        C812   1.416       .  A
C811        S815   1.794       .  S
C812        C813   1.425       .  A
C813        C814   1.413       .  A
C813        H820   1.081       .  S
C814        S816   1.804       .  S
S815        H818   1.407       .  S
S816        H817   1.405       .  S
C821        C822   1.406       .  A
C821        C826   1.422       .  A
C822        C823   1.399       .  A
C822        H831   1.078       .  S
C823        C824   1.416       .  A
C823        S827   1.800       .  S
C824        C825   1.406       .  A
C825        C826   1.421       .  A
C825        H832   1.081       .  S
C826        S828   1.804       .  S
S827        H830   1.404       .  S
S828        H829   1.407       .  S
C833        C834   1.398       .  A
C833        C838   1.425       .  A
C834        C835   1.406       .  A
C834        H843   1.084   1_554  S
C835        C836   1.427       .  A
C835        S839   1.799       .  S
C836        C837   1.395       .  A
C837        C838   1.400       .  A
C837        H844   1.081       .  S
C838        S840   1.806       .  S
S839        H842   1.406   1_545  S
S840        H841   1.402       .  S
C845        C846   1.414       .  A
C845        C850   1.400       .  A
C846        C847   1.414       .  A
C846        H855   1.083       .  S
C847        C848   1.422       .  A
C847        S851   1.802   1_554  S
C848        C849   1.423       .  A
C849        C850   1.395       .  A
C849        H856   1.077       .  S
C850        S852   1.802       .  S
S851        H854   1.403       .  S
S852        H853   1.407       .  S
C857        C858   1.410       .  A
C857        C862   1.409       .  A
C858        C859   1.412       .  A
C858        H867   1.084       .  S
C859        C860   1.417       .  A
C859        S863   1.795       .  S
C860        C861   1.423       .  A
C861        C862   1.406       .  A
C861        H868   1.079       .  S
C862        S864   1.803       .  S
S863        H866   1.407       .  S
S864        H865   1.402   1_556  S
C869        C870   1.416       .  A
C869        C874   1.429       .  A
C870        C871   1.415       .  A
C870        H879   1.082       .  S
C871        C872   1.402       .  A
C871        S875   1.794       .  S
C872        C873   1.398       .  A
C873        C874   1.400       .  A
C873        H880   1.083       .  S
C874        S876   1.802       .  S
S875        H878   1.407       .  S
S876        H877   1.407       .  S
C881        C882   1.409       .  A
C881        C886   1.414       .  A
C882        C883   1.423       .  A
C882        H891   1.082       .  S
C883        C884   1.415       .  A
C883        S887   1.801       .  S
C884        C885   1.405       .  A
C885        C886   1.409       .  A
C885        H892   1.080       .  S
C886        S888   1.806       .  S
S887        H890   1.406       .  S
S888        H889   1.407       .  S
C893        C894   1.408       .  A
C893        C898   1.420       .  A
C894        C895   1.424       .  A
C894        H903   1.080       .  S
C895        C896   1.425       .  A
C895        S899   1.806       .  S
C896        C897   1.411       .  A
C897        C898   1.403       .  A
C897        H904   1.078       .  S
C898        S900   1.803       .  S
S899        H902   1.405       .  S
S900        H901   1.405       .  S
C905        C906   1.406       .  A
C905        C910   1.429       .  A
C906        C907   1.406       .  A
C906        H915   1.079       .  S
C907        C908   1.430       .  A
C907        S911   1.805       .  S
C908        C909   1.411       .  A
C909        C910   1.417       .  A
C909        H916   1.078       .  S
C910        S912   1.800       .  S
S911        H914   1.404       .  S
S912        H913   1.407       .  S
C917        C918   1.427       .  A
C917        C922   1.423       .  A
C918        C919   1.405       .  A
C918        H927   1.080       .  S
C919        C920   1.394       .  A
C919        S923   1.796       .  S
C920        C921   1.414       .  A
C921        C922   1.412       .  A
C921        H928   1.083       .  S
C922        S924   1.797       .  S
S923        H926   1.406       .  S
S924        H925   1.402       .  S
C929        C930   1.411       .  A
C929        C934   1.440       .  A
C930        C931   1.413       .  A
C930        H939   1.080       .  S
C931        C932   1.416       .  A
C931        S935   1.807       .  S
C932        C933   1.396       .  A
C933        C934   1.415       .  A
C933        H940   1.083       .  S
C934        S936   1.808       .  S
S935        H938   1.406       .  S
S936        H937   1.407       .  S
C941        C942   1.407       .  A
C941        C946   1.421       .  A
C942        C943   1.399       .  A
C942        H951   1.077       .  S
C943        C944   1.414       .  A
C943        S947   1.802       .  S
C944        C945   1.409       .  A
C945        C946   1.424       .  A
C945        H952   1.081       .  S
C946        S948   1.805       .  S
S947        H950   1.405       .  S
S948        H949   1.406       .  S
C953        C954   1.403       .  A
C953        C958   1.420       .  A
C954        C955   1.414       .  A
C954        H963   1.084       .  S
C955        C956   1.432       .  A
C955        S959   1.799       .  S
C956        C957   1.402       .  A
C957        C958   1.406       .  A
C957        H964   1.076       .  S
C958        S960   1.804       .  S
S959        H962   1.406       .  S
S960        H961   1.407       .  S
C965        C966   1.404       .  A
C965        C970   1.420       .  A
C966        C967   1.415       .  A
C966        H975   1.081       .  S
C967        C968   1.426       .  A
C967        S971   1.807       .  S
C968        C969   1.408       .  A
C969        C970   1.408       .  A
C969        H976   1.076       .  S
C970        S972   1.805       .  S
S971        H974   1.408       .  S
S972        H973   1.406       .  S
