geometry optimzed in LAMMPS
_audit_creation_date              2020-11-30 
_audit_creation_method            'lammps2cif' 
_symmetry_space_group_name_H-M    'P1' 
_symmetry_Int_Tables_number       1 
_symmetry_cell_setting            triclinic 
loop_ 
_symmetry_equiv_pos_as_xyz 
  x,y,z 
_cell_length_a                    27.92470516 
_cell_length_b                    29.708139209017478 
_cell_length_c                    29.099849130731712 
_cell_angle_alpha                 89.60786873579325 
_cell_angle_beta                  90.74766766086215 
_cell_angle_gamma                 89.65875013859139 
loop_ 
_atom_site_label 
_atom_site_type_symbol 
_atom_site_fract_x 
_atom_site_fract_y 
_atom_site_fract_z 
_atom_site_charge 
N1          N  0.59871433  0.45862276  0.06765460    -0.06300
N2          N  0.62301292  0.45820382  0.10660309    -0.58400
N3          N  0.58513347  0.42277948  0.45966718    -0.06000
N4          N  0.60219113  0.39192541  0.43251531    -0.60600
N5          N  0.61557129  0.45603505  0.46401442    -0.05600
N6          N  0.65451106  0.44841566  0.44001609    -0.58400
N7          N  0.56971795  0.42415139  0.06502262    -0.05300
N8          N  0.57412582  0.39898881  0.10243280    -0.60900
C9          C  0.60769212  0.42076287  0.12789282     0.95900
C10         C  0.64508321  0.40838223  0.42042412     0.95600
N11         N  0.43759258  0.43823518  0.43891928    -0.06500
N12         N  0.41019211  0.42710889  0.40369763    -0.59000
N13         N  0.46136990  0.41369819  0.04906552    -0.04600
N14         N  0.45516383  0.38336804  0.08121825    -0.60300
N15         N  0.42407179  0.44064863  0.04512719    -0.06500
N16         N  0.39099879  0.42857422  0.07466599    -0.59300
N17         N  0.47405886  0.41021028  0.44333152    -0.04300
N18         N  0.47175549  0.37895146  0.41123406    -0.60400
Mn19       Mn  0.52175032  0.41624242  0.00466410     1.18400
C20         C  0.43184011  0.39022225  0.38665289     0.97900
C21         C  0.41170628  0.39331463  0.09737776     0.98600
N22         N  0.60215792  0.55934813  0.46054060    -0.06600
N23         N  0.63527033  0.56990522  0.43065656    -0.62900
N24         N  0.55082778  0.58717606  0.05780615    -0.05400
N25         N  0.54812029  0.61575438  0.09184677    -0.63500
N26         N  0.58760736  0.56012292  0.06338150    -0.06100
N27         N  0.61115981  0.56966107  0.10143870    -0.63100
N28         N  0.56525431  0.58646880  0.45622545    -0.05000
N29         N  0.57205659  0.61622516  0.42364579    -0.63800
Mn30       Mn  0.60316762  0.50825813  0.51385273     1.10700
C31         C  0.61580191  0.60555102  0.40802489     0.99200
C32         C  0.58559822  0.60397489  0.11909302     0.99200
N33         N  0.41249651  0.54721603  0.04091628    -0.06100
N34         N  0.37724525  0.55639013  0.06936614    -0.61400
N35         N  0.45804011  0.57535407  0.44075085    -0.05400
N36         N  0.45384582  0.60461120  0.40711878    -0.58200
N37         N  0.42648874  0.54311628  0.43640942    -0.06700
N38         N  0.39948164  0.55037847  0.39944131    -0.61000
N39         N  0.44430021  0.57948880  0.04224330    -0.05700
N40         N  0.43245454  0.61081862  0.07132141    -0.58200
Mn41       Mn  0.42208250  0.49259669  0.99085569     1.20200
Mn42       Mn  0.50426226  0.58214879  0.49984180     1.10100
Cl43       Cl  0.51258683  0.49987607  0.00174827    -0.86200
C44         C  0.39088695  0.59617430  0.08799167     0.96200
C45         C  0.41722715  0.58917064  0.38160872     0.96000
N46         N  0.40383687  0.94344726  0.06244145    -0.06300
N47         N  0.36926458  0.91691876  0.07748918    -0.58400
N48         N  0.43859252  0.04707030  0.08871089    -0.06000
N49         N  0.42825787  0.07497855  0.12249322    -0.60600
N50         N  0.40303092  0.04621036  0.05843365    -0.05600
N51         N  0.36784609  0.07328657  0.07175322    -0.58400
N52         N  0.43930401  0.94431764  0.09282531    -0.05300
N53         N  0.42914252  0.91849464  0.12859862    -0.60900
C54         C  0.38548441  0.90101887  0.11885343     0.95900
C55         C  0.38433359  0.09174390  0.11149920     0.95600
N56         N  0.58626958  0.04516516  0.05051077    -0.06500
N57         N  0.62257541  0.07205676  0.06005371    -0.59000
N58         N  0.55629615  0.94497923  0.08885716    -0.04600
N59         N  0.57429374  0.92306745  0.12493338    -0.60300
N60         N  0.58724165  0.94392406  0.05506156    -0.06500
N61         N  0.62603742  0.92117641  0.06738603    -0.59300
N62         N  0.55451990  0.04636116  0.08368739    -0.04300
N63         N  0.56878500  0.07405681  0.11635441    -0.60400
Mn64       Mn  0.49708168  0.99557656  0.08884575     1.18400
C65         C  0.61112594  0.08966869  0.10117256     0.97900
C66         C  0.61774154  0.90823466  0.11098974     0.98600
N67         N  0.40396606  0.04415593  0.44728066    -0.06600
N68         N  0.37116880  0.07472423  0.43536005    -0.62900
N69         N  0.43265016  0.93922129  0.41882328    -0.05400
N70         N  0.41821122  0.91118251  0.38638022    -0.63500
N71         N  0.40049971  0.94149813  0.45159816    -0.06100
N72         N  0.36383747  0.91496689  0.44190122    -0.63100
N73         N  0.43652474  0.04125823  0.41496541    -0.05000
N74         N  0.42645666  0.06952299  0.38110274    -0.63800
Mn75       Mn  0.40082920  0.99312447  0.00405433     1.10700
C76         C  0.38604925  0.09077244  0.39406036     0.99200
C77         C  0.37557326  0.89596425  0.40140041     0.99200
N78         N  0.58402287  0.93707594  0.44619546    -0.06100
N79         N  0.61987834  0.91079676  0.43367902    -0.61400
N80         N  0.55168532  0.03806002  0.40875609    -0.05400
N81         N  0.56408096  0.06232502  0.37247611    -0.58200
N82         N  0.58614189  0.03898351  0.43999225    -0.06700
N83         N  0.62232921  0.06362647  0.42541148    -0.61000
N84         N  0.54896235  0.93566573  0.41558863    -0.05700
N85         N  0.56077805  0.90837280  0.38189649    -0.58200
Mn86       Mn  0.58476516  0.99194569  0.99812173     1.20200
Mn87       Mn  0.49216573  0.98836742  0.41412124     1.10100
Cl88       Cl  0.49310365  0.99211273  0.00116522    -0.86200
C89         C  0.60498226  0.89256787  0.39347785     0.96200
C90         C  0.60838992  0.07830432  0.38315791     0.96000
N91         N  0.93600960  0.57999346  0.05207579    -0.06300
N92         N  0.90845374  0.61488406  0.06161797    -0.58400
N93         N  0.04282280  0.55053209  0.09050697    -0.06000
N94         N  0.06849601  0.56415501  0.12629908    -0.60600
N95         N  0.04395858  0.58099296  0.05739544    -0.05600
N96         N  0.06994121  0.61593067  0.07030058    -0.58400
N97         N  0.93436290  0.54957966  0.08527980    -0.05300
N98         N  0.90581259  0.56387385  0.11826552    -0.60900
C99         C  0.88919255  0.60420847  0.10249515     0.95900
C100        C  0.08545419  0.60479624  0.11309913     0.95600
N101        N  0.04741071  0.41029664  0.05938523    -0.06500
N102        N  0.07749159  0.37812827  0.07274263    -0.59000
N103        N  0.93742123  0.43827211  0.08732602    -0.04600
N104        N  0.90988352  0.42382880  0.12107896    -0.60300
N105        N  0.93977722  0.40732947  0.05505629    -0.06500
N106        N  0.91413301  0.37189435  0.06604326    -0.59300
N107        N  0.04569331  0.44219200  0.09071833    -0.04300
N108        N  0.07478385  0.43234888  0.12558369    -0.60400
Mn109      Mn  0.98968261  0.49498995  0.08909663     1.18400
C110        C  0.09477467  0.39269349  0.11360350     0.97900
C111        C  0.89546741  0.38261192  0.10688946     0.98600
N112        N  0.04644193  0.57708147  0.44673598    -0.06600
N113        N  0.07509165  0.61030927  0.43423421    -0.62900
N114        N  0.93832758  0.54848816  0.41022823    -0.05400
N115        N  0.91395288  0.56323009  0.37378086    -0.63500
N116        N  0.93814330  0.57942322  0.44245227    -0.06100
N117        N  0.91364428  0.61521934  0.42854717    -0.63100
N118        N  0.04668412  0.54515115  0.41556434    -0.05000
N119        N  0.07546874  0.55623250  0.38185490    -0.63800
Mn120      Mn  0.99218393  0.57918347  0.99959693     1.10700
C121        C  0.09356829  0.59669800  0.39364731     0.99200
C122        C  0.89869663  0.60499361  0.38565268     0.99200
N123        N  0.93499923  0.40681238  0.44213518    -0.06100
N124        N  0.90954683  0.37219058  0.42720523    -0.61400
N125        N  0.04451187  0.43639737  0.41522951    -0.05400
N126        N  0.07274480  0.42351575  0.38165338    -0.58200
N127        N  0.04299773  0.40483686  0.44718560    -0.06700
N128        N  0.06982163  0.36987544  0.43560921    -0.61000
N129        N  0.93618309  0.43855156  0.41031093    -0.05700
N130        N  0.91161652  0.42574395  0.37356879    -0.58200
Mn131      Mn  0.99426054  0.40699845  0.00208529     1.20200
Mn132      Mn  0.99127602  0.49225131  0.41265018     1.10100
Cl133      Cl  0.99224450  0.49317425  0.00106075    -0.86200
C134        C  0.89448541  0.38447745  0.38435751     0.96200
C135        C  0.08835832  0.38198679  0.39465507     0.96000
C136        C  0.25733894  0.25502564  0.20575523     0.45300
H137        H  0.24786843  0.24722794  0.17030967    -0.03800
C138        C  0.27100249  0.26750733  0.29237721     0.45300
H139        H  0.27641929  0.27272913  0.32982569    -0.03800
C140        C  0.30055598  0.28570457  0.21494469    -0.17500
C141        C  0.21434829  0.27779973  0.22964139    -0.17200
C142        C  0.27178458  0.21125930  0.23077057    -0.17600
C143        C  0.30726646  0.29394034  0.26191341    -0.17600
C144        C  0.22102836  0.28368017  0.27597067    -0.17100
C145        C  0.27769974  0.21757754  0.27761515    -0.17500
C146        C  0.71895921  0.26751270  0.21008639     0.45300
H147        H  0.70910300  0.27686960  0.17535126    -0.03800
C148        C  0.74002334  0.24491789  0.29330834     0.45300
H149        H  0.75043219  0.23454002  0.32837625    -0.03800
C150        C  0.69497897  0.29785199  0.24686880    -0.17500
C151        C  0.70359034  0.21949381  0.22056244    -0.17200
C152        C  0.77336016  0.27050749  0.21988624    -0.17600
C153        C  0.70768106  0.28610882  0.29122875    -0.17600
C154        C  0.71151901  0.20799501  0.26620041    -0.17100
C155        C  0.78415861  0.26190664  0.26594560    -0.17500
C156        C  0.25227260  0.73953854  0.20614751     0.45300
H157        H  0.24806758  0.74684797  0.16892065    -0.03800
C158        C  0.26067280  0.72331442  0.29309245     0.45300
H159        H  0.26448241  0.71414318  0.32982993    -0.03800
C160        C  0.29198970  0.70526862  0.21700407    -0.17500
C161        C  0.26821411  0.78145913  0.23364909    -0.17200
C162        C  0.20615508  0.71936608  0.22769433    -0.17600
C163        C  0.29510891  0.69484727  0.26311331    -0.17600
C164        C  0.27095486  0.77359739  0.28085752    -0.17100
C165        C  0.21025724  0.71238880  0.27469011    -0.17500
C166        C  0.73419900  0.75037667  0.20327486     0.45300
H167        H  0.72729564  0.74951222  0.16597351    -0.03800
C168        C  0.74671183  0.74875097  0.29106455     0.45300
H169        H  0.75299097  0.74838887  0.32884381    -0.03800
C170        C  0.69453350  0.72438261  0.22932020    -0.17500
C171        C  0.78160381  0.72699210  0.21746417    -0.17200
C172        C  0.73567490  0.79839411  0.22438569    -0.17600
C173        C  0.70161205  0.72388938  0.27624292    -0.17600
C174        C  0.78711364  0.72435359  0.26448643    -0.17100
C175        C  0.73769089  0.79675766  0.27231821    -0.17500
C176        C  0.09673721  0.67486689  0.15947472    -0.06000
C177        C  0.11564414  0.63427541  0.14248976    -0.00100
C178        C  0.16326115  0.62229355  0.15362182    -0.08600
C179        C  0.19089988  0.65187420  0.18020243    -0.06000
C180        C  0.17264592  0.69239016  0.19783698    -0.00100
C181        C  0.12412761  0.70380535  0.18792454    -0.08500
C182        C  0.09922258  0.74522314  0.20645592     0.61800
H183        H  0.05984699  0.68361386  0.15123752     0.12500
H184        H  0.22647804  0.64167253  0.19056402     0.12500
C185        C  0.18453293  0.57794450  0.13794194     0.62100
F186        F  0.06049352  0.73201181  0.23236003    -0.23100
F187        F  0.08285678  0.77158681  0.17012004    -0.20400
F188        F  0.12859173  0.77126429  0.23380536    -0.20100
F189        F  0.18046081  0.57460705  0.09066273    -0.20200
F190        F  0.16032013  0.54274522  0.15819210    -0.20500
F191        F  0.23243448  0.57379233  0.14996928    -0.23100
C192        C  0.16588365  0.64090037  0.29169798    -0.06000
C193        C  0.17622414  0.68526968  0.30420771    -0.00100
C194        C  0.15766333  0.70099440  0.34649209    -0.08600
C195        C  0.13148158  0.67097841  0.37469533    -0.06000
C196        C  0.12294459  0.62581499  0.36233537    -0.00100
C197        C  0.14090488  0.61054696  0.31960062    -0.08500
C198        C  0.13482404  0.56242368  0.30255546     0.61800
H199        H  0.17813689  0.62910425  0.25966105     0.12500
H200        H  0.11740658  0.68284602  0.40692279     0.12500
C201        C  0.16328872  0.74971281  0.36113217     0.62100
F202        F  0.15246688  0.53228667  0.33514941    -0.23100
F203        F  0.15935339  0.55451210  0.26232003    -0.20400
F204        F  0.08696162  0.55408445  0.29352576    -0.20100
F205        F  0.14981586  0.77815422  0.32543090    -0.20200
F206        F  0.21016886  0.75823299  0.37352888    -0.20500
F207        F  0.13500923  0.75979642  0.39845348    -0.23100
C208        C  0.15653615  0.37808348  0.34305316    -0.06000
C209        C  0.12159469  0.35434505  0.36644199    -0.00100
C210        C  0.11834812  0.30708759  0.35970082    -0.08600
C211        C  0.15157853  0.28559119  0.33027442    -0.06000
C212        C  0.18695234  0.30971102  0.30651839    -0.00100
C213        C  0.18864275  0.35725007  0.31335162    -0.08500
C214        C  0.22296952  0.38892474  0.29118220     0.61800
H215        H  0.15888165  0.41421368  0.34798507     0.12500
H216        H  0.14993480  0.24956897  0.32540919     0.12500
C217        C  0.07918799  0.27973235  0.38197263     0.62100
F218        F  0.19809213  0.42235121  0.26742092    -0.23100
F219        F  0.25110192  0.36722067  0.26104845    -0.20400
F220        F  0.25159957  0.40836113  0.32466631    -0.20100
F221        F  0.03492187  0.29863414  0.37153655    -0.20200
F222        F  0.08604725  0.27898360  0.42909442    -0.20500
F223        F  0.07898024  0.23569020  0.36670090    -0.23100
C224        C  0.20133231  0.34356653  0.17831729    -0.06000
C225        C  0.18091328  0.30697598  0.20179145    -0.00100
C226        C  0.13106429  0.29933407  0.19661716    -0.08600
C227        C  0.10380638  0.32901518  0.16852608    -0.06000
C228        C  0.12493768  0.36494668  0.14480470    -0.00100
C229        C  0.17437796  0.37268859  0.14989279    -0.08500
C230        C  0.19860859  0.41097152  0.12454056     0.61800
H231        H  0.23930629  0.34862347  0.18121743     0.12500
H232        H  0.06566666  0.32344437  0.16419268     0.12500
C233        C  0.10490690  0.26015302  0.21822156     0.62100
F234        F  0.24752006  0.41175141  0.13294504    -0.23100
F235        F  0.17953599  0.45159009  0.13848032    -0.20400
F236        F  0.19124611  0.40640847  0.07771555    -0.20100
F237        F  0.07237185  0.27649601  0.24952561    -0.20200
F238        F  0.13511090  0.22986904  0.24040477    -0.20500
F239        F  0.08024994  0.23707441  0.18433227    -0.23100
C240        C  0.88558298  0.32233765  0.16576518    -0.06000
C241        C  0.86491155  0.35155905  0.13297555    -0.00100
C242        C  0.81664665  0.34586005  0.12046734    -0.08600
C243        C  0.78780322  0.31927409  0.14878492    -0.06000
C244        C  0.80699753  0.29232152  0.18518222    -0.00100
C245        C  0.85794223  0.28945090  0.18834530    -0.08500
C246        C  0.88497550  0.25014388  0.20999333     0.61800
H247        H  0.92411496  0.32266591  0.17089141     0.12500
H248        H  0.75016398  0.32118017  0.14172530     0.12500
C249        C  0.79637878  0.36668857  0.07640194     0.62100
F250        F  0.91655476  0.23288087  0.17825142    -0.23100
F251        F  0.85514445  0.21542844  0.22265615    -0.20400
F252        F  0.91096827  0.26449481  0.24782690    -0.20100
F253        F  0.82103793  0.35001918  0.03924128    -0.20200
F254        F  0.80127056  0.41298154  0.07730354    -0.20500
F255        F  0.74855376  0.35635444  0.06968770    -0.23100
C256        C  0.86763562  0.30700859  0.36164973    -0.06000
C257        C  0.86920185  0.35343664  0.35114516    -0.00100
C258        C  0.84775906  0.36823295  0.30900278    -0.08600
C259        C  0.82297211  0.33684773  0.28154226    -0.06000
C260        C  0.82006694  0.29062207  0.29245287    -0.00100
C261        C  0.84507045  0.27531519  0.33249383    -0.08500
C262        C  0.85091209  0.22601149  0.34541339     0.61800
H263        H  0.88540043  0.29482872  0.39269019     0.12500
H264        H  0.80397728  0.34909513  0.25165044     0.12500
C265        C  0.84991916  0.41692643  0.29257352     0.62100
F266        F  0.89918038  0.21616286  0.35076655    -0.23100
F267        F  0.83259114  0.19725743  0.31258635    -0.20400
F268        F  0.82829974  0.21778949  0.38658583    -0.20100
F269        F  0.89692060  0.42840192  0.28404394    -0.20200
F270        F  0.83114999  0.44514029  0.32546611    -0.20500
F271        F  0.82408559  0.42402997  0.25220262    -0.23100
C272        C  0.84882583  0.71118183  0.32487640    -0.06000
C273        C  0.82017643  0.69222847  0.29014090    -0.00100
C274        C  0.81916273  0.64405573  0.28685326    -0.08600
C275        C  0.84749964  0.61804375  0.31722630    -0.06000
C276        C  0.87368469  0.63693672  0.35335165    -0.00100
C277        C  0.87537199  0.68470271  0.35678841    -0.08500
C278        C  0.90503631  0.70824638  0.39343363     0.61800
H279        H  0.84906462  0.74746899  0.32767423     0.12500
H280        H  0.84657517  0.58165116  0.31439609     0.12500
C281        C  0.78710273  0.61644510  0.25570911     0.62100
F282        F  0.90638721  0.75435798  0.38635024    -0.23100
F283        F  0.95172238  0.69242072  0.39291370    -0.20400
F284        F  0.88545073  0.70058712  0.43616540    -0.20100
F285        F  0.81496422  0.59300739  0.22492738    -0.20200
F286        F  0.75448721  0.64171171  0.23175299    -0.20500
F287        F  0.76157996  0.58584412  0.28168765    -0.23100
C288        C  0.78738377  0.67434521  0.15088593    -0.06000
C289        C  0.81157278  0.70130425  0.18345974    -0.00100
C290        C  0.86250774  0.69954117  0.18490127    -0.08600
C291        C  0.88637951  0.66632606  0.15919614    -0.06000
C292        C  0.86149672  0.63693298  0.12999002    -0.00100
C293        C  0.81148682  0.64189488  0.12450647    -0.08500
C294        C  0.78379126  0.61172657  0.09193038     0.61800
H295        H  0.74874983  0.67635546  0.14853108     0.12500
H296        H  0.92514098  0.66407503  0.16105874     0.12500
C297        C  0.89367470  0.73313939  0.21030415     0.62100
F298        F  0.73520558  0.62129839  0.09171359    -0.23100
F299        F  0.79013764  0.56725035  0.10515832    -0.20400
F300        F  0.80036634  0.61740513  0.04768905    -0.20100
F301        F  0.91959109  0.71114638  0.24457667    -0.20200
F302        F  0.86780052  0.76788202  0.22948712    -0.20500
F303        F  0.92546537  0.75216153  0.17979404    -0.23100
C304        C  0.61283625  0.12946774  0.31575960    -0.06000
C305        C  0.63760286  0.10748262  0.35145902    -0.00100
C306        C  0.68790002  0.11491572  0.35560122    -0.08600
C307        C  0.71029977  0.14573079  0.32517928    -0.06000
C308        C  0.68456654  0.17095423  0.29184159    -0.00100
C309        C  0.63387865  0.16283138  0.28814854    -0.08500
C310        C  0.59801064  0.19070938  0.26048446     0.61800
H311        H  0.57479708  0.12320062  0.31170701     0.12500
H312        H  0.74839541  0.15161008  0.32835752     0.12500
C313        C  0.71837694  0.09039471  0.39144521     0.62100
F314        F  0.55770628  0.19951401  0.28630256    -0.23100
F315        F  0.58399816  0.16730950  0.22174841    -0.20400
F316        F  0.61587002  0.23157283  0.24824436    -0.20100
F317        F  0.71136304  0.04446896  0.38800814    -0.20200
F318        F  0.70618342  0.10473083  0.43487960    -0.20500
F319        F  0.76674167  0.09843656  0.38582476    -0.23100
C320        C  0.62858965  0.16722241  0.12095362    -0.06000
C321        C  0.64069342  0.12211064  0.12673781    -0.00100
C322        C  0.67690410  0.10975565  0.15889286    -0.08600
C323        C  0.69641309  0.14312625  0.18738582    -0.06000
C324        C  0.68196548  0.18858071  0.18460600    -0.00100
C325        C  0.64847730  0.20130976  0.14843334    -0.08500
C326        C  0.63192151  0.24903035  0.13632653     0.61800
H327        H  0.60237117  0.17540983  0.09435961     0.12500
H328        H  0.72360788  0.13324878  0.21248143     0.12500
C329        C  0.69656041  0.06240171  0.16496167     0.62100
F330        F  0.66574570  0.26987040  0.10931975    -0.23100
F331        F  0.62357760  0.27383822  0.17485664    -0.20400
F332        F  0.58919632  0.24934552  0.11156312    -0.20100
F333        F  0.67743881  0.03229124  0.13390590    -0.20200
F334        F  0.68717787  0.04743800  0.20903134    -0.20500
F335        F  0.74565113  0.06293504  0.15909057    -0.23100
C336        C  0.30746582  0.11252356  0.15132052    -0.06000
C337        C  0.35589783  0.12226527  0.14228123    -0.00100
C338        C  0.37633492  0.16077854  0.16317480    -0.08600
C339        C  0.34793481  0.18754267  0.19214009    -0.06000
C340        C  0.30026770  0.17712076  0.20310091    -0.00100
C341        C  0.27939363  0.13930175  0.18134582    -0.08500
C342        C  0.22749236  0.12776149  0.18959542     0.61800
H343        H  0.29182136  0.08335969  0.13499450     0.12500
H344        H  0.36315220  0.21765350  0.20618954     0.12500
C345        C  0.42754241  0.17494884  0.15370102     0.62100
F346        F  0.19841029  0.16327581  0.17563183    -0.23100
F347        F  0.22096263  0.11967189  0.23588433    -0.20400
F348        F  0.21357071  0.08979196  0.16567960    -0.20100
F349        F  0.43443460  0.17803853  0.10680011    -0.20200
F350        F  0.45923633  0.14382184  0.17253718    -0.20500
F351        F  0.43820450  0.21641263  0.17257998    -0.23100
C352        C  0.35356059  0.17958870  0.30255357    -0.06000
C353        C  0.30418890  0.18487064  0.30845542    -0.00100
C354        C  0.28206289  0.16107067  0.34464238    -0.08600
C355        C  0.30994700  0.13088965  0.37190867    -0.06000
C356        C  0.35925647  0.12411330  0.36439921    -0.00100
C357        C  0.38155820  0.14933880  0.32885242    -0.08500
C358        C  0.43469714  0.14543596  0.31817570     0.61800
H359        H  0.37079816  0.20095641  0.27801122     0.12500
H360        H  0.29322624  0.11226587  0.39941190     0.12500
C361        C  0.22968271  0.16872356  0.35537270     0.62100
F362        F  0.44907533  0.17740685  0.28642464    -0.23100
F363        F  0.44427039  0.10359469  0.29974925    -0.20400
F364        F  0.46183132  0.15153007  0.35772328    -0.20100
F365        F  0.20171473  0.16193572  0.31653974    -0.20200
F366        F  0.22329821  0.21236278  0.37027794    -0.20500
F367        F  0.21401734  0.13987625  0.38950765    -0.23100
C368        C  0.68984047  0.85982790  0.11969515    -0.06000
C369        C  0.65570342  0.88752885  0.14076729    -0.00100
C370        C  0.66316805  0.89896174  0.18762246    -0.08600
C371        C  0.70044247  0.87714577  0.21241183    -0.06000
C372        C  0.72402583  0.83943496  0.19429315    -0.00100
C373        C  0.72550952  0.83727986  0.14558586    -0.08500
C374        C  0.76620867  0.81562162  0.11961900     0.61800
H375        H  0.68874145  0.85552018  0.08272719     0.12500
H376        H  0.70850661  0.88758289  0.24694184     0.12500
C377        C  0.63203677  0.93325446  0.21173576     0.62100
F378        F  0.78581815  0.84718053  0.09029765    -0.23100
F379        F  0.74936235  0.78017758  0.09351546    -0.20400
F380        F  0.80232943  0.80050737  0.14886306    -0.20100
F381        F  0.58570846  0.91758055  0.21388885    -0.20200
F382        F  0.63215687  0.97353327  0.18789537    -0.20500
F383        F  0.64781909  0.94135333  0.25621709    -0.23100
C384        C  0.68626602  0.86206222  0.37499593    -0.06000
C385        C  0.63757044  0.86702222  0.36202639    -0.00100
C386        C  0.62263760  0.84973909  0.31879026    -0.08600
C387        C  0.65708047  0.82918341  0.29076724    -0.06000
C388        C  0.70595265  0.82518742  0.30280339    -0.00100
C389        C  0.72064187  0.84189634  0.34625162    -0.08500
C390        C  0.77190603  0.84024033  0.36406243     0.61800
H391        H  0.69822500  0.87492073  0.40793251     0.12500
H392        H  0.64622253  0.81723902  0.25773858     0.12500
C393        C  0.57079155  0.85221397  0.30172607     0.62100
F394        F  0.78615796  0.88321538  0.37579991    -0.23100
F395        F  0.80386925  0.82401941  0.33228858    -0.20400
F396        F  0.77428804  0.81310538  0.40285837    -0.20100
F397        F  0.55691961  0.89652750  0.29524601    -0.20200
F398        F  0.54114488  0.83198241  0.33337165    -0.20500
F399        F  0.56413148  0.83065205  0.26013823    -0.23100
C400        C  0.31680584  0.79025305  0.35464122    -0.06000
C401        C  0.28975367  0.80689527  0.31663041    -0.00100
C402        C  0.28380663  0.85465337  0.31347794    -0.08600
C403        C  0.31358383  0.88269258  0.34044061    -0.06000
C404        C  0.34410061  0.86512393  0.37482721    -0.00100
C405        C  0.34327236  0.81859510  0.38412710    -0.08500
C406        C  0.37110900  0.79920086  0.42485954     0.61800
H407        H  0.31832545  0.75472258  0.36143482     0.12500
H408        H  0.31148168  0.91891360  0.33587193     0.12500
C409        C  0.24437898  0.87806726  0.28589946     0.62100
F410        F  0.36354398  0.75351970  0.43008327    -0.23100
F411        F  0.35678405  0.82000130  0.46481418    -0.20400
F412        F  0.41955743  0.80635991  0.41898855    -0.20100
F413        F  0.21134222  0.84843336  0.26793511    -0.20200
F414        F  0.26413793  0.90312852  0.25078174    -0.20500
F415        F  0.21969920  0.90700235  0.31431483    -0.23100
C416        C  0.30759143  0.86510929  0.13965554    -0.06000
C417        C  0.35594939  0.87273527  0.15143889    -0.00100
C418        C  0.37340006  0.85424839  0.19395642    -0.08600
C419        C  0.34246776  0.82769163  0.22110647    -0.06000
C420        C  0.29478772  0.81834651  0.20813578    -0.00100
C421        C  0.27659994  0.83943121  0.16738317    -0.08500
C422        C  0.22446993  0.83811507  0.15199319     0.61800
H423        H  0.29311481  0.88010488  0.10834547     0.12500
H424        H  0.35611523  0.81283300  0.25259505     0.12500
C425        C  0.42456746  0.86124199  0.21093057     0.62100
F426        F  0.20735765  0.88174017  0.14736506    -0.23100
F427        F  0.19525953  0.81609963  0.18252243    -0.20400
F428        F  0.22103278  0.81708305  0.10983827    -0.20100
F429        F  0.43238945  0.90650322  0.21864821    -0.20200
F430        F  0.45640694  0.84538224  0.17872398    -0.20500
F431        F  0.43409659  0.83860396  0.25183665    -0.23100
C432        C  0.36505016  0.68672340  0.31325860    -0.06000
C433        C  0.33156911  0.66473021  0.28547487    -0.00100
C434        C  0.33184524  0.61674912  0.28438238    -0.08600
C435        C  0.36236960  0.59343385  0.31513105    -0.06000
C436        C  0.39338892  0.61598439  0.34505464    -0.00100
C437        C  0.39745613  0.66356060  0.34179673    -0.08500
C438        C  0.43484193  0.69068030  0.36804258     0.61800
H439        H  0.36614647  0.72294702  0.31173720     0.12500
H440        H  0.36152702  0.55703023  0.31692863     0.12500
C441        C  0.29954205  0.58933575  0.25335359     0.62100
F442        F  0.48013714  0.67481624  0.35806092    -0.23100
F443        F  0.42707823  0.68762361  0.41479755    -0.20400
F444        F  0.43361353  0.73582805  0.35600837    -0.20100
F445        F  0.30465832  0.54344102  0.26077834    -0.20200
F446        F  0.30975213  0.59738119  0.20802514    -0.20500
F447        F  0.25292668  0.60032143  0.26157221    -0.23100
C448        C  0.39080843  0.64355368  0.15527943    -0.06000
C449        C  0.36407035  0.62379454  0.11983552    -0.00100
C450        C  0.31755711  0.63976788  0.10952381    -0.08600
C451        C  0.29688915  0.67062454  0.13971789    -0.06000
C452        C  0.32122238  0.68517054  0.17962613    -0.00100
C453        C  0.37109624  0.67648885  0.18330268    -0.08500
C454        C  0.40625863  0.70462219  0.21041503     0.61800
H455        H  0.42855486  0.63523067  0.15927903     0.12500
H456        H  0.26100422  0.68234643  0.13259111     0.12500
C457        C  0.29085300  0.62570199  0.06618972     0.62100
F458        F  0.43136303  0.67776804  0.24147063    -0.23100
F459        F  0.38415002  0.73920771  0.23306546    -0.20400
F460        F  0.43869656  0.72367993  0.18057450    -0.20100
F461        F  0.28289624  0.57984095  0.06714410    -0.17900
F462        F  0.31769644  0.63637537  0.02804339    -0.20500
F463        F  0.24694407  0.64726239  0.06165966    -0.23100
C464        C  0.60883140  0.65815386  0.34422992    -0.06000
C465        C  0.63918254  0.63269783  0.37304156    -0.00100
C466        C  0.68917623  0.63830971  0.37113188    -0.08600
C467        C  0.70667479  0.66893080  0.33913833    -0.06000
C468        C  0.67658185  0.69517913  0.31031519    -0.00100
C469        C  0.62613613  0.69056383  0.31405449    -0.08500
C470        C  0.58796222  0.71873307  0.28990184     0.61800
H471        H  0.57040402  0.65381322  0.34638648     0.12500
H472        H  0.74472393  0.67229768  0.33672089     0.12500
C473        C  0.72414189  0.61378494  0.40329221     0.62100
F474        F  0.55799226  0.69114376  0.26459890    -0.23100
F475        F  0.56110742  0.74073921  0.32253357    -0.20400
F476        F  0.60607365  0.75045768  0.26096531    -0.20100
F477        F  0.72226297  0.56796968  0.39547014    -0.20200
F478        F  0.71277867  0.62264636  0.44848939    -0.20500
F479        F  0.77095591  0.62726482  0.39693857    -0.23100
C480        C  0.60544548  0.67983651  0.14114413    -0.06000
C481        C  0.60533865  0.63433114  0.15304773    -0.00100
C482        C  0.62777940  0.61926273  0.19380077    -0.08600
C483        C  0.65517262  0.65005655  0.21849628    -0.06000
C484        C  0.65900782  0.69554971  0.20481626    -0.00100
C485        C  0.63039538  0.71118340  0.16714913    -0.08500
C486        C  0.62241575  0.75968264  0.15290610     0.61800
H487        H  0.58642727  0.69119619  0.11038658     0.12500
H488        H  0.67452138  0.63771422  0.24817106     0.12500
C489        C  0.62240199  0.57136789  0.21140822     0.62100
F490        F  0.57371985  0.76853278  0.15007041    -0.23100
F491        F  0.64220421  0.76700957  0.11021609    -0.20400
F492        F  0.64138588  0.78936807  0.18361553    -0.20100
F493        F  0.64513010  0.54192124  0.18248376    -0.20200
F494        F  0.57436540  0.56056513  0.21333744    -0.20500
F495        F  0.64209940  0.56568731  0.25501807    -0.23100
C496        C  0.71621051  0.36208588  0.32506854    -0.06000
C497        C  0.70365772  0.31652639  0.33126617    -0.00100
C498        C  0.68587859  0.30208180  0.37447651    -0.08600
C499        C  0.67708900  0.33484375  0.40726805    -0.06000
C500        C  0.67899232  0.38052700  0.39609432    -0.00100
C501        C  0.70179622  0.39508761  0.35604405    -0.08500
C502        C  0.70771374  0.44469632  0.34481349     0.61800
H503        H  0.73386971  0.37232261  0.29410914     0.12500
H504        H  0.66245102  0.32527166  0.44022094     0.12500
C505        C  0.67061574  0.25416170  0.38556337     0.62100
F506        F  0.73138472  0.45124044  0.30382313    -0.23100
F507        F  0.73392953  0.46508827  0.37944258    -0.20400
F508        F  0.66328648  0.46531333  0.34094096    -0.20100
F509        F  0.71011750  0.22751851  0.39538129    -0.20200
F510        F  0.64487581  0.23659953  0.34942301    -0.20500
F511        F  0.64114472  0.25237731  0.42345826    -0.23100
C512        C  0.60115609  0.37719470  0.19941846    -0.06000
C513        C  0.63018646  0.40165941  0.16959973    -0.00100
C514        C  0.68040410  0.40225263  0.17730156    -0.08600
C515        C  0.69990891  0.37071454  0.20814397    -0.06000
C516        C  0.67120149  0.34079389  0.23260421    -0.00100
C517        C  0.62095386  0.34834069  0.23294623    -0.08500
C518        C  0.58626927  0.32681145  0.26581512     0.61800
H519        H  0.56257450  0.37971715  0.19565864     0.12500
H520        H  0.73819057  0.36715960  0.21119085     0.12500
C521        C  0.71384532  0.43375261  0.15196547     0.62100
F522        F  0.55963724  0.36018765  0.28665508    -0.23100
F523        F  0.60873844  0.30232083  0.30000503    -0.20400
F524        F  0.55545074  0.29900617  0.24189629    -0.20100
F525        F  0.70196372  0.47774645  0.16151858    -0.20200
F526        F  0.71035806  0.42703654  0.10519140    -0.20500
F527        F  0.76121580  0.42741677  0.16520210    -0.23100
C528        C  0.36893309  0.29664073  0.32300630    -0.06000
C529        C  0.34686914  0.32011652  0.28599334    -0.00100
C530        C  0.35989040  0.36663094  0.27938077    -0.08600
C531        C  0.39106405  0.38648036  0.31171431    -0.06000
C532        C  0.40949143  0.36317421  0.34991372    -0.00100
C533        C  0.39883932  0.31723109  0.35563643    -0.08500
C534        C  0.41541419  0.29084027  0.39796530     0.61800
H535        H  0.35998958  0.26197057  0.32840518     0.12500
H536        H  0.39966267  0.42193190  0.30822988     0.12500
C537        C  0.34280830  0.39961298  0.24214982     0.62100
F538        F  0.39815656  0.24722588  0.39818989    -0.23100
F539        F  0.39920505  0.31184184  0.43717261    -0.20400
F540        F  0.46485618  0.28849770  0.39933414    -0.20100
F541        F  0.31451510  0.38126945  0.20854853    -0.20200
F542        F  0.38202565  0.41829418  0.22091569    -0.20500
F543        F  0.31752997  0.43434824  0.26216890    -0.23100
C544        C  0.34160039  0.34784022  0.11060459    -0.06000
C545        C  0.38628749  0.36184110  0.12650402    -0.00100
C546        C  0.40858554  0.33963147  0.16430744    -0.08600
C547        C  0.38151117  0.30865936  0.18920492    -0.06000
C548        C  0.33370021  0.29973526  0.17716867    -0.00100
C549        C  0.31755911  0.31271327  0.13219089    -0.08500
C550        C  0.28649974  0.28350053  0.10105634     0.61800
H551        H  0.32777048  0.36140421  0.07833714     0.12500
H552        H  0.39696618  0.29258140  0.21936631     0.12500
C553        C  0.45943502  0.34996177  0.17992838     0.62100
F554        F  0.29599470  0.29143765  0.05507455    -0.23100
F555        F  0.23847711  0.29239501  0.10708643    -0.20400
F556        F  0.29655776  0.23842855  0.10894990    -0.20100
F557        F  0.46668446  0.39596623  0.18115935    -0.20200
F558        F  0.49151614  0.33064761  0.14999709    -0.20500
F559        F  0.46881750  0.33302272  0.22353537    -0.23100
N560        N  0.59977744  0.45771801  0.56686635    -0.06300
N561        N  0.62473628  0.45661749  0.60540508    -0.58400
N562        N  0.58316102  0.42234849  0.96075452    -0.06000
N563        N  0.59928065  0.39124244  0.93334593    -0.60600
N564        N  0.61411832  0.45521730  0.96457524    -0.05600
N565        N  0.65246547  0.44713115  0.93989458    -0.58400
N566        N  0.57122497  0.42293801  0.56375891    -0.05300
N567        N  0.57654876  0.39691893  0.60046991    -0.60900
C568        C  0.61017775  0.41853351  0.62597264     0.95900
C569        C  0.64215903  0.40719217  0.92049343     0.95600
N570        N  0.43558729  0.43966097  0.94065190    -0.06500
N571        N  0.40848471  0.42897222  0.90502698    -0.59000
N572        N  0.46286058  0.41111112  0.54713917    -0.04600
N573        N  0.45704233  0.38090226  0.57950762    -0.60300
N574        N  0.42522671  0.43762536  0.54307865    -0.06500
N575        N  0.39232860  0.42545527  0.57274666    -0.59300
N576        N  0.47195548  0.41153215  0.94504350    -0.04300
N577        N  0.46990846  0.38069811  0.91253591    -0.60400
Mn578      Mn  0.52357344  0.41511602  0.50316080     1.18400
C579        C  0.43023143  0.39223248  0.88771031     0.97900
C580        C  0.41350033  0.39061674  0.59567640     0.98600
N581        N  0.60202607  0.55834453  0.95965260    -0.06600
N582        N  0.63530173  0.56840872  0.92975096    -0.62900
N583        N  0.55081767  0.58619039  0.55921661    -0.05400
N584        N  0.54923384  0.61544691  0.59277105    -0.63500
N585        N  0.58783305  0.55931154  0.56421351    -0.06100
N586        N  0.61255308  0.56948206  0.60140428    -0.63100
N587        N  0.56525729  0.58554626  0.95487326    -0.05000
N588        N  0.57224796  0.61485946  0.92201627    -0.63800
Mn589      Mn  0.60261294  0.50825181  0.01378077     1.10700
C590        C  0.61593216  0.60382489  0.90666115     0.99200
C591        C  0.58756385  0.60408225  0.61914549     0.99200
N592        N  0.41254312  0.54342432  0.54088754    -0.06100
N593        N  0.37740243  0.55057753  0.57003453    -0.61400
N594        N  0.45777049  0.57618657  0.93981771    -0.05400
N595        N  0.45308064  0.60505668  0.90585226    -0.58200
N596        N  0.42579509  0.54421026  0.93660514    -0.06700
N597        N  0.39819093  0.55107049  0.90003644    -0.61000
N598        N  0.44386017  0.57606477  0.54352296    -0.05700
N599        N  0.43172637  0.60570318  0.57428656    -0.58200
Mn600      Mn  0.42309905  0.49032344  0.48966981     1.20200
Mn601      Mn  0.50449924  0.58318786  0.99850024     1.10100
Cl602      Cl  0.51340381  0.49877978  0.50140102    -0.86200
C603        C  0.39060306  0.58951354  0.59059981     0.96200
C604        C  0.41591160  0.58937175  0.88119005     0.96000
N605        N  0.40641511  0.94407007  0.56312869    -0.06300
N606        N  0.37185329  0.91726163  0.57752777    -0.58400
N607        N  0.44210609  0.04705936  0.59011820    -0.06000
N608        N  0.43163571  0.07455744  0.62424161    -0.60600
N609        N  0.40670185  0.04673613  0.55968311    -0.05600
N610        N  0.37156834  0.07371460  0.57306802    -0.58400
N611        N  0.44188616  0.94426644  0.59350310    -0.05300
N612        N  0.43170266  0.91772474  0.62875444    -0.60900
C613        C  0.38800105  0.90051319  0.61854167     0.95900
C614        C  0.38779146  0.09154940  0.61312380     0.95600
N615        N  0.58941152  0.04397158  0.55035991    -0.06500
N616        N  0.62545247  0.07138823  0.55919935    -0.59000
N617        N  0.55865159  0.94377566  0.58871930    -0.04600
N618        N  0.57657543  0.92163894  0.62466471    -0.60300
N619        N  0.58941596  0.94248235  0.55477524    -0.06500
N620        N  0.62806481  0.91938761  0.56694833    -0.59300
N621        N  0.55789185  0.04536625  0.58373949    -0.04300
N622        N  0.57204469  0.07368497  0.61585586    -0.60400
Mn623      Mn  0.50012204  0.99502386  0.58946575     1.18400
C624        C  0.61401910  0.08956458  0.60008114     0.97900
C625        C  0.61983894  0.90649184  0.61059227     0.98600
N626        N  0.40093048  0.04254389  0.94555642    -0.06600
N627        N  0.36765205  0.07246441  0.93314075    -0.62900
N628        N  0.43141270  0.93797781  0.91776678    -0.05400
N629        N  0.41734216  0.91032234  0.88479588    -0.63500
N630        N  0.39875155  0.94004769  0.95013993    -0.06100
N631        N  0.36210869  0.91375408  0.93950738    -0.63100
N632        N  0.43391288  0.04000031  0.91356453    -0.05000
N633        N  0.42377066  0.06802211  0.87947227    -0.63800
Mn634      Mn  0.40361341  0.99423461  0.50531436     1.10700
C635        C  0.38282072  0.08860645  0.89202470     0.99200
C636        C  0.37435503  0.89512174  0.89891850     0.99200
N637        N  0.58319472  0.93808485  0.94656632    -0.06100
N638        N  0.61973557  0.91243682  0.93435151    -0.61400
N639        N  0.54923209  0.03832788  0.90849492    -0.05400
N640        N  0.56188401  0.06240669  0.87214406    -0.58200
N641        N  0.58319855  0.03993524  0.94018381    -0.06700
N642        N  0.61923141  0.06484357  0.92589095    -0.61000
N643        N  0.54829408  0.93583634  0.91585404    -0.05700
N644        N  0.56088736  0.90849783  0.88246888    -0.58200
Mn645      Mn  0.58717231  0.99076643  0.49791787     1.20200
Mn646      Mn  0.49046252  0.98780267  0.91355196     1.10100
Cl647      Cl  0.49562468  0.99213018  0.50173806    -0.86200
C648        C  0.60543251  0.89364415  0.89422683     0.96200
C649        C  0.60580961  0.07897982  0.88334815     0.96000
N650        N  0.93352662  0.57964291  0.55185410    -0.06300
N651        N  0.90612186  0.61463713  0.56147284    -0.58400
N652        N  0.04024404  0.54790965  0.59026553    -0.06000
N653        N  0.06690459  0.56109646  0.62565521    -0.60600
N654        N  0.04152287  0.57847227  0.55721996    -0.05600
N655        N  0.06859212  0.61277014  0.56955689    -0.58400
N656        N  0.93147890  0.54907072  0.58489107    -0.05300
N657        N  0.90270580  0.56327840  0.61772242    -0.60900
C658        C  0.88643263  0.60378418  0.60212645     0.95900
C659        C  0.08464579  0.60139452  0.61198720     0.95600
N660        N  0.04010638  0.40686194  0.55813670    -0.06500
N661        N  0.06896334  0.37339517  0.57066933    -0.59000
N662        N  0.93125088  0.43817549  0.58592658    -0.04600
N663        N  0.90401264  0.42337311  0.61978142    -0.60300
N664        N  0.93191279  0.40827241  0.55258128    -0.06500
N665        N  0.90490676  0.37351891  0.56281896    -0.59300
N666        N  0.03944744  0.43806860  0.59024420    -0.04300
N667        N  0.06778991  0.42616315  0.62510778    -0.60400
Mn668      Mn  0.98546085  0.49324141  0.58861305     1.18400
C669        C  0.08618274  0.38601823  0.61222450     0.97900
C670        C  0.88708330  0.38343428  0.60429767     0.98600
N671        N  0.04779591  0.57769571  0.94591413    -0.06600
N672        N  0.07516632  0.61138531  0.93211932    -0.62900
N673        N  0.93954748  0.54729171  0.91112187    -0.05400
N674        N  0.91460873  0.56199473  0.87492575    -0.63500
N675        N  0.93977162  0.57840645  0.94318144    -0.06100
N676        N  0.91497332  0.61403377  0.92953527    -0.63100
N677        N  0.04782437  0.54543578  0.91506028    -0.05000
N678        N  0.07534483  0.55665282  0.88047240    -0.63800
Mn679      Mn  0.99001000  0.57860814  0.49958757     1.10700
C680        C  0.09261180  0.59767950  0.89113986     0.99200
C681        C  0.89933980  0.60379903  0.88696043     0.99200
N682        N  0.94046485  0.40466103  0.94456461    -0.06100
N683        N  0.91456792  0.36973834  0.93088529    -0.61400
N684        N  0.04847525  0.43726202  0.91588698    -0.05400
N685        N  0.07670953  0.42481874  0.88217880    -0.58200
N686        N  0.04910435  0.40642230  0.94855409    -0.06700
N687        N  0.07754559  0.37249515  0.93736353    -0.61000
N688        N  0.93969945  0.43635893  0.91262848    -0.05700
N689        N  0.91343430  0.42320438  0.87706748    -0.58200
Mn690      Mn  0.98750296  0.40665895  0.50024917     1.20200
Mn691      Mn  0.99353416  0.49162700  0.91339594     1.10100
Cl692      Cl  0.98851916  0.49265036  0.50032520    -0.86200
C693        C  0.89715666  0.38178387  0.88867865     0.96200
C694        C  0.09494413  0.38437231  0.89583910     0.96000
C695        C  0.25954684  0.25521164  0.70357484     0.45300
H696        H  0.25103283  0.24890825  0.66757644    -0.03800
C697        C  0.27116547  0.26668487  0.79056100     0.45300
H698        H  0.27540515  0.27110860  0.82825716    -0.03800
C699        C  0.30332642  0.28478014  0.71441329    -0.17500
C700        C  0.21618546  0.27826582  0.72643139    -0.17200
C701        C  0.27209591  0.21101258  0.72844551    -0.17600
C702        C  0.30829828  0.29328096  0.76156575    -0.17600
C703        C  0.22235644  0.28445254  0.77294785    -0.17100
C704        C  0.27710240  0.21671717  0.77525333    -0.17500
C705        C  0.72317781  0.26545882  0.71147563     0.45300
H706        H  0.71392050  0.27680998  0.67712985    -0.03800
C707        C  0.74015677  0.24276711  0.79531068     0.45300
H708        H  0.74882902  0.23234197  0.83074352    -0.03800
C709        C  0.69848404  0.29639291  0.74705575    -0.17500
C710        C  0.70575524  0.21794453  0.72132942    -0.17200
C711        C  0.77769370  0.26656512  0.72320032    -0.17600
C712        C  0.70883083  0.28461190  0.79185983    -0.17600
C713        C  0.71211136  0.20629981  0.76714223    -0.17100
C714        C  0.78591358  0.25864248  0.76992013    -0.17500
C715        C  0.25325740  0.73766192  0.70295230     0.45300
H716        H  0.25059353  0.74436058  0.66553603    -0.03800
C717        C  0.25792029  0.72339319  0.79053174     0.45300
H718        H  0.25982666  0.71568864  0.82780884    -0.03800
C719        C  0.29204457  0.70317404  0.71597912    -0.17500
C720        C  0.26851327  0.78003545  0.73016575    -0.17200
C721        C  0.20615391  0.71822150  0.72308189    -0.17600
C722        C  0.29335233  0.69424255  0.76250144    -0.17600
C723        C  0.26955468  0.77309003  0.77751485    -0.17100
C724        C  0.20818052  0.71214055  0.77030899    -0.17500
C725        C  0.73443824  0.75031546  0.70518393     0.45300
H726        H  0.72755926  0.74937870  0.66789917    -0.03800
C727        C  0.74709060  0.74910998  0.79290147     0.45300
H728        H  0.75331786  0.74899643  0.83067473    -0.03800
C729        C  0.69447333  0.72498776  0.73128088    -0.17500
C730        C  0.78133420  0.72627003  0.71941966    -0.17200
C731        C  0.73675964  0.79838237  0.72596038    -0.17600
C732        C  0.70162920  0.72468156  0.77819439    -0.17600
C733        C  0.78707739  0.72388303  0.76644582    -0.17100
C734        C  0.73881274  0.79713009  0.77391419    -0.17500
C735        C  0.09649615  0.67215571  0.65679122    -0.06000
C736        C  0.11522503  0.63116173  0.64061186    -0.00100
C737        C  0.16325907  0.61986617  0.65059145    -0.08600
C738        C  0.19129676  0.65033959  0.67578290    -0.06000
C739        C  0.17320282  0.69140568  0.69251789    -0.00100
C740        C  0.12435269  0.70211301  0.68360641    -0.08500
C741        C  0.09944054  0.74359109  0.70206166     0.61800
H742        H  0.05934164  0.68043885  0.64922512     0.12500
H743        H  0.22653158  0.63997376  0.68685473     0.12500
C744        C  0.18458304  0.57549800  0.63485900     0.62100
F745        F  0.06197364  0.73032023  0.72957292    -0.23100
F746        F  0.08126151  0.76887556  0.66569676    -0.20400
F747        F  0.12924739  0.77074840  0.72786123    -0.20100
F748        F  0.18092750  0.57258093  0.58752750    -0.20200
F749        F  0.16021664  0.54002452  0.65449540    -0.20500
F750        F  0.23236336  0.57119756  0.64724963    -0.23100
C751        C  0.15703039  0.64391141  0.78531101    -0.06000
C752        C  0.17209085  0.68671058  0.79939127    -0.00100
C753        C  0.15785028  0.70093156  0.84380404    -0.08600
C754        C  0.13335953  0.67055468  0.87280734    -0.06000
C755        C  0.12010896  0.62703107  0.85860372    -0.00100
C756        C  0.13178485  0.61378081  0.81318583    -0.08500
C757        C  0.11915139  0.56786035  0.79321697     0.61800
H758        H  0.16761855  0.63192504  0.75287828     0.12500
H759        H  0.12376128  0.68154441  0.90692773     0.12500
C760        C  0.16599661  0.74796685  0.86211939     0.62100
F761        F  0.13957506  0.53398235  0.81994199    -0.23100
F762        F  0.13583293  0.56230205  0.74899249    -0.20400
F763        F  0.06994270  0.56300265  0.79112968    -0.20100
F764        F  0.18069265  0.77780027  0.82870947    -0.20200
F765        F  0.19997947  0.74627750  0.89709568    -0.20500
F766        F  0.12360457  0.76462148  0.87956007    -0.23100
C767        C  0.14789653  0.37900253  0.82925669    -0.06000
C768        C  0.12722310  0.35651003  0.86627509    -0.00100
C769        C  0.13754201  0.30974181  0.87227203    -0.08600
C770        C  0.16868990  0.28813882  0.84098897    -0.06000
C771        C  0.18956946  0.31110743  0.80390553    -0.00100
C772        C  0.17972381  0.35811189  0.79925898    -0.08500
C773        C  0.20292574  0.38960818  0.76568273     0.61800
H774        H  0.14056674  0.41462711  0.82436256     0.12500
H775        H  0.17681674  0.25265605  0.84504144     0.12500
C776        C  0.11511445  0.28211179  0.91028944     0.62100
F777        F  0.16914963  0.40513452  0.73413222    -0.23100
F778        F  0.23932077  0.36915269  0.74317617    -0.20400
F779        F  0.22180924  0.42608330  0.78890957    -0.20100
F780        F  0.06573738  0.28481201  0.90662223    -0.20200
F781        F  0.12998862  0.29798683  0.95265164    -0.20500
F782        F  0.12798884  0.23709985  0.90800012    -0.23100
C783        C  0.19844576  0.33318398  0.66396830    -0.06000
C784        C  0.18002938  0.30314797  0.69691979    -0.00100
C785        C  0.12953314  0.29944800  0.70074761    -0.08600
C786        C  0.09985975  0.32784046  0.67329332    -0.06000
C787        C  0.11894018  0.35804807  0.64104942    -0.00100
C788        C  0.16891828  0.36062998  0.63603009    -0.08500
C789        C  0.19078726  0.39310872  0.60180994     0.61800
H790        H  0.23676119  0.33651760  0.66148797     0.12500
H791        H  0.06127832  0.32571134  0.67636030     0.12500
C792        C  0.10496226  0.26560819  0.73159538     0.62100
F793        F  0.24032978  0.39130339  0.60282215    -0.23100
F794        F  0.17681729  0.43665265  0.61188162    -0.20400
F795        F  0.17535250  0.38264945  0.55783104    -0.20100
F796        F  0.08145419  0.28823145  0.76610244    -0.20200
F797        F  0.13629386  0.23471216  0.75130003    -0.20500
F798        F  0.07164763  0.24182547  0.70604351    -0.23100
C799        C  0.88255244  0.33292038  0.67248002    -0.06000
C800        C  0.86084666  0.34999805  0.63217595    -0.00100
C801        C  0.81900816  0.32895888  0.61528274    -0.08600
C802        C  0.79587079  0.29756079  0.64360761    -0.06000
C803        C  0.81290416  0.28631334  0.68828547    -0.00100
C804        C  0.86170184  0.29734323  0.69747852    -0.08500
C805        C  0.89588830  0.26757296  0.72507909     0.61800
H806        H  0.91837341  0.34394774  0.68159278     0.12500
H807        H  0.76547531  0.28045504  0.62923921     0.12500
C808        C  0.79906710  0.33904106  0.56736793     0.62100
F809        F  0.93337613  0.25475290  0.69729264    -0.23100
F810        F  0.87436692  0.22860774  0.74033424    -0.20400
F811        F  0.91479063  0.29098356  0.76190816    -0.20100
F812        F  0.82954233  0.32154108  0.53487100    -0.20200
F813        F  0.79478104  0.38499600  0.56058082    -0.20500
F814        F  0.75432599  0.32021307  0.56043421    -0.23100
C815        C  0.86790163  0.30428093  0.86724672    -0.06000
C816        C  0.86966227  0.35075669  0.85669246    -0.00100
C817        C  0.84614539  0.36575088  0.81552497    -0.08600
C818        C  0.82119658  0.33433650  0.78813054    -0.06000
C819        C  0.81965162  0.28794777  0.79827412    -0.00100
C820        C  0.84451513  0.27261606  0.83845725    -0.08500
C821        C  0.84918588  0.22328857  0.85194058     0.61800
H822        H  0.88622582  0.29204528  0.89796346     0.12500
H823        H  0.80185143  0.34624094  0.75813629     0.12500
C824        C  0.84638410  0.41471754  0.79995165     0.62100
F825        F  0.89712607  0.21253835  0.85816440    -0.23100
F826        F  0.83082205  0.19444260  0.81919215    -0.20400
F827        F  0.82567019  0.21593221  0.89280722    -0.20100
F828        F  0.89249623  0.42723594  0.78903010    -0.20200
F829        F  0.82907279  0.44189945  0.83445105    -0.20500
F830        F  0.81800436  0.42205252  0.76120652    -0.23100
C831        C  0.84692144  0.71034888  0.82841854    -0.06000
C832        C  0.81997941  0.69167643  0.79233228    -0.00100
C833        C  0.81998878  0.64355885  0.78821129    -0.08600
C834        C  0.84922711  0.61753856  0.81781138    -0.06000
C835        C  0.87377374  0.63602081  0.85519885    -0.00100
C836        C  0.87251675  0.68368923  0.86088279    -0.08500
C837        C  0.89726995  0.70705141  0.90089797     0.61800
H838        H  0.84601600  0.74653449  0.83211153     0.12500
H839        H  0.84972199  0.58126053  0.81370272     0.12500
C840        C  0.78766200  0.61590185  0.75742731     0.62100
F841        F  0.89326600  0.75346390  0.89782447    -0.23100
F842        F  0.94553335  0.69629743  0.90166140    -0.20400
F843        F  0.87655671  0.69393264  0.94174665    -0.20100
F844        F  0.81500405  0.59322291  0.72566786    -0.20200
F845        F  0.75407512  0.64108883  0.73467960    -0.20500
F846        F  0.76327912  0.58465163  0.78365399    -0.23100
C847        C  0.78567411  0.67374646  0.65268267    -0.06000
C848        C  0.81053212  0.70017078  0.68526276    -0.00100
C849        C  0.86140224  0.69836673  0.68583875    -0.08600
C850        C  0.88469776  0.66524877  0.65955276    -0.06000
C851        C  0.85925988  0.63656791  0.63000802    -0.00100
C852        C  0.80926799  0.64216329  0.62488908    -0.08500
C853        C  0.78115767  0.61432020  0.59048644     0.61800
H854        H  0.74703286  0.67596238  0.65085625     0.12500
H855        H  0.92345521  0.66273724  0.66098281     0.12500
C856        C  0.89298729  0.73211751  0.71053091     0.62100
F857        F  0.73264798  0.62422166  0.59109879    -0.23100
F858        F  0.78713844  0.56904180  0.60050477    -0.20400
F859        F  0.79761319  0.62289054  0.54667264    -0.20100
F860        F  0.92002599  0.71025829  0.74408137    -0.20200
F861        F  0.86747345  0.76664602  0.73051941    -0.20500
F862        F  0.92364275  0.75145145  0.67915467    -0.23100
C863        C  0.61190588  0.12878241  0.81490618    -0.06000
C864        C  0.63570630  0.10749182  0.85169365    -0.00100
C865        C  0.68584047  0.11523729  0.85722544    -0.08600
C866        C  0.70924811  0.14462692  0.82620555    -0.06000
C867        C  0.68445479  0.16937190  0.79194519    -0.00100
C868        C  0.63376268  0.16186245  0.78749589    -0.08500
C869        C  0.59876232  0.19107203  0.76018762     0.61800
H870        H  0.57390400  0.12271613  0.81019035     0.12500
H871        H  0.74730437  0.15033631  0.83004295     0.12500
C872        C  0.71502890  0.09327642  0.89571721     0.62100
F873        F  0.55837827  0.19997967  0.78586811    -0.23100
F874        F  0.58468243  0.16905318  0.72064717    -0.20400
F875        F  0.61765186  0.23193512  0.74929840    -0.20100
F876        F  0.70964167  0.04704755  0.89432614    -0.20200
F877        F  0.69999614  0.10941306  0.93763536    -0.20500
F878        F  0.76340500  0.10243981  0.89223495    -0.23100
C879        C  0.63199941  0.16706431  0.62015270    -0.06000
C880        C  0.64386853  0.12183258  0.62554994    -0.00100
C881        C  0.67960066  0.10899500  0.65796769    -0.08600
C882        C  0.69870112  0.14192699  0.68725949    -0.06000
C883        C  0.68456863  0.18748444  0.68475516    -0.00100
C884        C  0.65180339  0.20076633  0.64823533    -0.08500
C885        C  0.63578741  0.24874241  0.63673008     0.61800
H886        H  0.60600383  0.17563110  0.59348405     0.12500
H887        H  0.72535035  0.13164467  0.71272484     0.12500
C888        C  0.69897961  0.06147468  0.66356681     0.62100
F889        F  0.67040919  0.27005898  0.61114178    -0.23100
F890        F  0.62649008  0.27267076  0.67561973    -0.20400
F891        F  0.59379533  0.24974555  0.61082752    -0.20100
F892        F  0.68076728  0.03199541  0.63137362    -0.20200
F893        F  0.68823613  0.04568953  0.70701297    -0.20500
F894        F  0.74823810  0.06198248  0.65905208    -0.23100
C895        C  0.30914028  0.11442275  0.64783794    -0.06000
C896        C  0.35885660  0.12166966  0.64373132    -0.00100
C897        C  0.37952285  0.15818649  0.66793353    -0.08600
C898        C  0.35025215  0.18480012  0.69619042    -0.06000
C899        C  0.30103986  0.17675164  0.70193112    -0.00100
C900        C  0.27982470  0.14179666  0.67599987    -0.08500
C901        C  0.22618335  0.13462553  0.67708277     0.61800
H902        H  0.29325112  0.08720253  0.62848834     0.12500
H903        H  0.36559376  0.21384540  0.71241724     0.12500
C904        C  0.43176918  0.17094330  0.66217636     0.62100
F905        F  0.20271302  0.17290232  0.66116934    -0.23100
F906        F  0.21228535  0.12583991  0.72160663    -0.20400
F907        F  0.21219133  0.09887796  0.64987552    -0.20100
F908        F  0.44237727  0.17404288  0.61595538    -0.20200
F909        F  0.46093697  0.13883148  0.68297638    -0.20500
F910        F  0.44215977  0.21209607  0.68191062    -0.23100
C911        C  0.35243891  0.18292353  0.80638641    -0.06000
C912        C  0.30222790  0.18270224  0.80559159    -0.00100
C913        C  0.27828891  0.15044053  0.83303797    -0.08600
C914        C  0.30577347  0.12123052  0.86166798    -0.06000
C915        C  0.35620677  0.12170165  0.86221586    -0.00100
C916        C  0.38003086  0.15285594  0.83330223    -0.08500
C917        C  0.43438239  0.15513800  0.83048727     0.61800
H918        H  0.37045850  0.20742201  0.78558276     0.12500
H919        H  0.28748722  0.09679017  0.88288294     0.12500
C920        C  0.22439977  0.14427674  0.83292242     0.62100
F921        F  0.44939117  0.19217694  0.80547861    -0.23100
F922        F  0.45164105  0.11712657  0.80891874    -0.20400
F923        F  0.45435927  0.15818149  0.87409064    -0.20100
F924        F  0.20028832  0.17401731  0.80408349    -0.20200
F925        F  0.20751329  0.15009760  0.87694913    -0.20500
F926        F  0.21389146  0.10099503  0.81886863    -0.23100
C927        C  0.69238468  0.85857117  0.62016973    -0.06000
C928        C  0.65798254  0.88643084  0.64064486    -0.00100
C929        C  0.66531390  0.89874396  0.68729335    -0.08600
C930        C  0.70227444  0.87718428  0.71272541    -0.06000
C931        C  0.72579593  0.83914787  0.69534300    -0.00100
C932        C  0.72782511  0.83636745  0.64669852    -0.08500
C933        C  0.76882965  0.81421025  0.62155736     0.61800
H934        H  0.69156634  0.85375887  0.58326916     0.12500
H935        H  0.71000422  0.88797573  0.74721183     0.12500
C936        C  0.63434586  0.93374267  0.71051220     0.62100
F937        F  0.78903016  0.84531320  0.59212885    -0.23100
F938        F  0.75229542  0.77847369  0.59569195    -0.20400
F939        F  0.80443931  0.79932329  0.65149467    -0.20100
F940        F  0.58814132  0.91798141  0.71376264    -0.20200
F941        F  0.63395390  0.97316885  0.68520268    -0.20500
F942        F  0.65068233  0.94345971  0.75445436    -0.23100
C943        C  0.68708250  0.86266766  0.87655859    -0.06000
C944        C  0.63855412  0.86820360  0.86302604    -0.00100
C945        C  0.62414883  0.85143394  0.81939538    -0.08600
C946        C  0.65867567  0.83057211  0.79176267    -0.06000
C947        C  0.70733593  0.82611570  0.80419892    -0.00100
C948        C  0.72167617  0.84239696  0.84797212    -0.08500
C949        C  0.77274288  0.83982815  0.86629262     0.61800
H950        H  0.69867731  0.87507682  0.90979270     0.12500
H951        H  0.64799966  0.81844469  0.75876195     0.12500
C952        C  0.57271433  0.85471478  0.80138357     0.62100
F953        F  0.78726423  0.88224537  0.87971046    -0.23100
F954        F  0.80489933  0.82451800  0.83421666    -0.20400
F955        F  0.77452251  0.81136330  0.90410770    -0.20100
F956        F  0.55938897  0.89930158  0.79581222    -0.20200
F957        F  0.54227536  0.83379947  0.83184277    -0.20500
F958        F  0.56677007  0.83430354  0.75909357    -0.23100
C959        C  0.31648840  0.78945082  0.85044699    -0.06000
C960        C  0.28866160  0.80632655  0.81313736    -0.00100
C961        C  0.28253957  0.85404535  0.81031434    -0.08600
C962        C  0.31194938  0.88205563  0.83783457    -0.06000
C963        C  0.34326001  0.86432365  0.87159889    -0.00100
C964        C  0.34370200  0.81751998  0.87957138    -0.08500
C965        C  0.37411309  0.79740134  0.91818920     0.61800
H966        H  0.31826906  0.75382567  0.85664678     0.12500
H967        H  0.30926833  0.91830851  0.83390342     0.12500
C968        C  0.24344370  0.87729463  0.78211851     0.62100
F969        F  0.36722618  0.75154259  0.92269327    -0.23100
F970        F  0.36229382  0.81714033  0.95945713    -0.20400
F971        F  0.42199342  0.80503383  0.90955850    -0.20100
F972        F  0.21077271  0.84754433  0.76369414    -0.20200
F973        F  0.26368271  0.90218811  0.74714994    -0.20500
F974        F  0.21823952  0.90627508  0.81006117    -0.23100
C975        C  0.31056874  0.86281058  0.63667884    -0.06000
C976        C  0.35826831  0.87138567  0.65010736    -0.00100
C977        C  0.37471270  0.85292473  0.69298388    -0.08600
C978        C  0.34340547  0.82565222  0.71900259    -0.06000
C979        C  0.29598392  0.81643831  0.70497295    -0.00100
C980        C  0.27896406  0.83703475  0.66354655    -0.08500
C981        C  0.22756588  0.83454742  0.64615382     0.61800
H982        H  0.29698985  0.87728211  0.60476296     0.12500
H983        H  0.35651856  0.81018250  0.75041881     0.12500
C984        C  0.42506367  0.86094779  0.71163244     0.62100
F985        F  0.21045343  0.87769089  0.63784592    -0.23100
F986        F  0.19711198  0.81446882  0.67693905    -0.20400
F987        F  0.22616621  0.81078797  0.60545391    -0.20100
F988        F  0.43146079  0.90636674  0.71962576    -0.20200
F989        F  0.45846418  0.84586196  0.68051731    -0.20500
F990        F  0.43362987  0.83842739  0.75279240    -0.23100
C991        C  0.36434826  0.68613156  0.81134855    -0.06000
C992        C  0.32845046  0.66431958  0.78643596    -0.00100
C993        C  0.32566882  0.61662630  0.78826487    -0.08600
C994        C  0.35673447  0.59327087  0.81831769    -0.06000
C995        C  0.39123393  0.61562076  0.84477481    -0.00100
C996        C  0.39770178  0.66270349  0.83861891    -0.08500
C997        C  0.43951741  0.68876770  0.85915563     0.61800
H998        H  0.36715735  0.72216990  0.80791584     0.12500
H999        H  0.35374173  0.55711598  0.82207712     0.12500
C1000       C  0.28951947  0.59008817  0.76067850     0.62100
F1001       F  0.48206342  0.66831950  0.84707440    -0.23100
F1002       F  0.43614088  0.69040447  0.90645729    -0.20400
F1003       F  0.44096777  0.73268454  0.84297207    -0.20100
F1004       F  0.29106043  0.54450635  0.77096573    -0.20200
F1005       F  0.29811122  0.59488015  0.71447742    -0.20500
F1006       F  0.24449887  0.60536546  0.77029456    -0.23100
C1007       C  0.38870541  0.63365907  0.65981284    -0.06000
C1008       C  0.36285971  0.61588131  0.62272032    -0.00100
C1009       C  0.31821849  0.63484372  0.61002056    -0.08600
C1010       C  0.29795754  0.66676042  0.63929448    -0.06000
C1011       C  0.32134253  0.68044179  0.68004109    -0.00100
C1012       C  0.37034805  0.66894401  0.68566189    -0.08500
C1013       C  0.40684566  0.69804822  0.70984399     0.61800
H1014       H  0.42574687  0.62342059  0.66532249     0.12500
H1015       H  0.26331247  0.68048681  0.63034684     0.12500
C1016       C  0.29351411  0.62326921  0.56481392     0.62100
F1017       F  0.43155745  0.67309307  0.74274369    -0.23100
F1018       F  0.38625602  0.73530921  0.72943158    -0.20400
F1019       F  0.43951916  0.71331088  0.67804735    -0.20100
F1020       F  0.28301825  0.57788592  0.56385027    -0.17900
F1021       F  0.32329487  0.63357379  0.52864004    -0.20500
F1022       F  0.25117032  0.64710939  0.55842044    -0.23100
C1023       C  0.60931849  0.65635384  0.84314568    -0.06000
C1024       C  0.63962117  0.63129891  0.87237052    -0.00100
C1025       C  0.68939709  0.63848435  0.87229714    -0.08600
C1026       C  0.70686963  0.66997873  0.84126235    -0.06000
C1027       C  0.67673849  0.69591132  0.81212012    -0.00100
C1028       C  0.62637490  0.69016414  0.81459609    -0.08500
C1029       C  0.58811797  0.71815678  0.79025257     0.61800
H1030       H  0.57103834  0.65075701  0.84398561     0.12500
H1031       H  0.74490715  0.67402682  0.83972933     0.12500
C1032       C  0.72404902  0.61463523  0.90530678     0.62100
F1033       F  0.56055083  0.69080980  0.76229023    -0.23100
F1034       F  0.55878120  0.73756114  0.82265568    -0.20400
F1035       F  0.60628634  0.75201846  0.76389977    -0.20100
F1036       F  0.72387137  0.56886156  0.89702869    -0.20200
F1037       F  0.71089751  0.62271719  0.95019823    -0.20500
F1038       F  0.77062146  0.62949376  0.90053015    -0.23100
C1039       C  0.60774145  0.67997026  0.64131133    -0.06000
C1040       C  0.60786019  0.63437709  0.65293048    -0.00100
C1041       C  0.63015793  0.61914707  0.69373982    -0.08600
C1042       C  0.65564968  0.65036428  0.71980076    -0.06000
C1043       C  0.65914450  0.69602292  0.70657202    -0.00100
C1044       C  0.63173562  0.71145161  0.66804387    -0.08500
C1045       C  0.62498422  0.75993304  0.65317165     0.61800
H1046       H  0.58937667  0.69124393  0.61016613     0.12500
H1047       H  0.67420338  0.63815818  0.74998053     0.12500
C1048       C  0.62721525  0.57042767  0.70969522     0.62100
F1049       F  0.57671436  0.76892754  0.64622807    -0.23100
F1050       F  0.64858929  0.76705102  0.61233879    -0.20400
F1051       F  0.64116976  0.78965070  0.68537292    -0.20100
F1052       F  0.65342819  0.54316993  0.68099672    -0.20200
F1053       F  0.57994876  0.55674575  0.70924749    -0.20500
F1054       F  0.64513618  0.56465778  0.75396842    -0.23100
C1055       C  0.71439845  0.36089636  0.82536622    -0.06000
C1056       C  0.70298337  0.31507521  0.83165457    -0.00100
C1057       C  0.68377269  0.30055603  0.87431272    -0.08600
C1058       C  0.67318546  0.33331846  0.90656804    -0.06000
C1059       C  0.67533954  0.37901720  0.89558631    -0.00100
C1060       C  0.69898196  0.39373752  0.85603915    -0.08500
C1061       C  0.70518826  0.44336866  0.84510931     0.61800
H1062       H  0.73212208  0.37144053  0.79449766     0.12500
H1063       H  0.65764588  0.32363115  0.93908904     0.12500
C1064       C  0.66822718  0.25261055  0.88502610     0.62100
F1065       F  0.72914362  0.45006106  0.80430371    -0.23100
F1066       F  0.73133494  0.46341823  0.87999089    -0.20400
F1067       F  0.66089644  0.46420774  0.84109717    -0.20100
F1068       F  0.70731841  0.22610853  0.89670244    -0.20200
F1069       F  0.64419548  0.23484442  0.84799777    -0.20500
F1070       F  0.63696004  0.25086355  0.92156022    -0.23100
C1071       C  0.60533365  0.37702386  0.69883023    -0.06000
C1072       C  0.63390516  0.39874727  0.66663770    -0.00100
C1073       C  0.68440184  0.39661483  0.67119173    -0.08600
C1074       C  0.70409141  0.36607610  0.70301435    -0.06000
C1075       C  0.67527828  0.33907406  0.73090321    -0.00100
C1076       C  0.62521262  0.34839453  0.73254364    -0.08500
C1077       C  0.59010587  0.32872509  0.76630997     0.61800
H1078       H  0.56678710  0.38139571  0.69668243     0.12500
H1079       H  0.74233307  0.36034577  0.70370675     0.12500
C1080       C  0.71756094  0.42376685  0.64083034     0.62100
F1081       F  0.56611355  0.36349695  0.78772828    -0.23100
F1082       F  0.61140369  0.30286542  0.79994612    -0.20400
F1083       F  0.55704591  0.30263135  0.74308018    -0.20100
F1084       F  0.70944844  0.46920740  0.64738664    -0.20200
F1085       F  0.70951003  0.41319264  0.59518386    -0.20500
F1086       F  0.76533769  0.41535355  0.65102829    -0.23100
C1087       C  0.36753091  0.29788002  0.82525018    -0.06000
C1088       C  0.34640512  0.32020664  0.78701151    -0.00100
C1089       C  0.35849355  0.36678742  0.78019370    -0.08600
C1090       C  0.38855564  0.38776338  0.81285853    -0.06000
C1091       C  0.40783354  0.36495402  0.85106501    -0.00100
C1092       C  0.39814255  0.31885023  0.85700550    -0.08500
C1093       C  0.41713253  0.29240903  0.89842690     0.61800
H1094       H  0.35755542  0.26389569  0.83236422     0.12500
H1095       H  0.39604342  0.42342493  0.80926842     0.12500
C1096       C  0.34062265  0.39857486  0.74242763     0.62100
F1097       F  0.40091495  0.24846019  0.89895844    -0.23100
F1098       F  0.40239616  0.31267835  0.93856085    -0.20400
F1099       F  0.46661206  0.29097410  0.89756740    -0.20100
F1100       F  0.31487487  0.37840710  0.70804562    -0.20200
F1101       F  0.37928241  0.41935792  0.72224408    -0.20500
F1102       F  0.31250167  0.43171671  0.76166078    -0.23100
C1103       C  0.34553325  0.34265253  0.60923421    -0.06000
C1104       C  0.38873166  0.35965147  0.62577277    -0.00100
C1105       C  0.41099808  0.34030633  0.66520707    -0.08600
C1106       C  0.38496794  0.30896659  0.69076833    -0.06000
C1107       C  0.33829953  0.29707549  0.67750449    -0.00100
C1108       C  0.32360846  0.30668914  0.63132765    -0.08500
C1109       C  0.29971197  0.27268606  0.59950026     0.61800
H1110       H  0.33241675  0.35335996  0.57559974     0.12500
H1111       H  0.40011485  0.29509324  0.72216084     0.12500
C1112       C  0.46060499  0.35409686  0.68152735     0.62100
F1113       F  0.31927144  0.27461083  0.55598553    -0.23100
F1114       F  0.25128527  0.28164038  0.59481491    -0.20400
F1115       F  0.30716280  0.22918338  0.61505557    -0.20100
F1116       F  0.46471092  0.40048371  0.68109512    -0.20200
F1117       F  0.49466150  0.33571006  0.65303406    -0.20500
F1118       F  0.46995284  0.33922423  0.72590859    -0.23100
loop_ 
_geom_bond_atom_site_label_1 
_geom_bond_atom_site_label_2 
_geom_bond_distance 
_geom_bond_site_symmetry_2 
_ccdc_geom_bond_type 
N1            N2   1.313       .  A
N1            N7   1.311       .  A
N1         Mn589   2.149       .  S
N2            C9   1.344       .  A
N3            N5   1.313       .  A
N3            N4   1.306       .  A
N3         Mn578   2.160       .  S
N4           C10   1.346       .  A
N5            N6   1.319       .  A
N5          Mn30   2.161       .  S
N6           C10   1.348       .  A
N7            N8   1.320       .  A
N7          Mn19   2.210       .  S
N8            C9   1.357       .  A
C9          C513   1.468       .  S
C10         C500   1.449       .  S
N11          N17   1.316       .  A
N11          N12   1.316       .  A
N11        Mn600   2.186       .  S
N12          C20   1.349       .  A
N13          N14   1.308       .  A
N13          N15   1.313       .  A
N13         Mn19   2.139       .  S
N14          C21   1.339       .  A
N15          N16   1.319       .  A
N15         Mn41   2.201   1_554  S
N16          C21   1.357       .  A
N17          N18   1.323       .  A
N17        Mn578   2.215       .  S
N18          C20   1.356       .  A
Mn19        N562   2.160   1_554  S
Mn19        N576   2.215   1_554  S
Mn19        Cl43   2.497       .  S
C20         C532   1.476       .  S
C21         C545   1.452       .  S
N22          N23   1.315       .  A
N22          N28   1.309       .  A
N22         Mn30   2.163       .  S
N23          C31   1.351       .  A
N24          N26   1.308       .  A
N24          N25   1.312       .  A
N24        Mn601   2.148   1_554  S
N25          C32   1.348       .  A
N26          N27   1.314       .  A
N26        Mn589   2.162       .  S
N27          C32   1.349       .  A
N28          N29   1.308       .  A
N28         Mn42   2.141       .  S
N29          C31   1.346       .  A
Mn30        N560   2.149       .  S
Mn30        N585   2.161       .  S
Mn30       Cl602   2.546       .  S
C31         C465   1.458       .  S
C32         C481   1.448       .  S
N33          N34   1.323       .  A
N33          N39   1.311       .  A
N33         Mn41   2.205   1_554  S
N34          C44   1.358       .  A
N35          N36   1.308       .  A
N35          N37   1.311       .  A
N35         Mn42   2.148       .  S
N36          C45   1.341       .  A
N37          N38   1.321       .  A
N37        Mn600   2.201       .  S
N38          C45   1.360       .  A
N39          N40   1.306       .  A
N39        Mn601   2.125   1_554  S
N40          C44   1.338       .  A
Mn41        N570   2.188       .  S
Mn41        N596   2.197       .  S
Mn41        Cl43   2.554   1_556  S
Mn42        N583   2.153       .  S
Mn42        N598   2.133       .  S
Mn42       Cl602   2.488       .  S
Cl43       Mn589   2.548       .  S
Cl43       Mn601   2.485   1_554  S
C44         C449   1.454       .  S
C45         C436   1.474       .  S
N46          N47   1.327       .  A
N46          N52   1.320       .  A
N46         Mn75   2.243       .  S
N47          C54   1.361       .  A
N48          N50   1.319       .  A
N48          N49   1.324       .  A
N48         Mn64   2.231   1_545  S
N49          C55   1.355       .  A
N50          N51   1.329       .  A
N50         Mn75   2.242   1_545  S
N51          C55   1.359       .  A
N52          N53   1.324       .  A
N52         Mn64   2.229       .  S
N53          C54   1.355       .  A
C54         C417   1.518       .  S
C55         C337   1.509       .  S
N56          N62   1.320       .  A
N56          N57   1.322       .  A
N56         Mn86   2.204   1_544  S
N57          C65   1.351       .  A
N58          N59   1.323       .  A
N58          N60   1.318       .  A
N58         Mn64   2.228       .  S
N59          C66   1.356       .  A
N60          N61   1.318       .  A
N60         Mn86   2.179   1_554  S
N61          C66   1.347       .  A
N62          N63   1.321       .  A
N62         Mn64   2.214   1_545  S
N63          C65   1.351       .  A
Mn64        Cl88   2.555       .  S
C65         C321   1.472       .  S
C66         C369   1.488       .  S
N67          N68   1.327       .  A
N67          N73   1.319       .  A
N67        Mn634   2.240   1_545  S
N68          C76   1.361       .  A
N69          N71   1.320       .  A
N69          N70   1.324       .  A
N69         Mn87   2.224       .  S
N70          C77   1.353       .  A
N71          N72   1.324       .  A
N71        Mn634   2.222       .  S
N72          C77   1.354       .  A
N73          N74   1.317       .  A
N73         Mn87   2.204   1_545  S
N74          C76   1.349       .  A
Mn75        N626   2.240   1_564  S
Mn75        N630   2.232   1_554  S
Mn75        Cl88   2.579       .  S
C76         C356   1.499       .  S
C77         C404   1.487       .  S
N78          N79   1.322       .  A
N78          N84   1.316       .  A
N78        Mn645   2.202       .  S
N79          C89   1.354       .  A
N80          N81   1.325       .  A
N80          N82   1.316       .  A
N80         Mn87   2.236   1_545  S
N81          C90   1.361       .  A
N82          N83   1.324       .  A
N82        Mn645   2.204   1_545  S
N83          C90   1.353       .  A
N84          N85   1.320       .  A
N84         Mn87   2.222       .  S
N85          C89   1.356       .  A
Mn86        N637   2.201       .  S
Mn86        N641   2.200   1_565  S
Mn86        Cl88   2.562   1_556  S
Mn87       Cl647   2.553       .  S
Cl88       Mn646   2.554   1_554  S
C89         C385   1.505       .  S
C90         C305   1.512       .  S
N91          N92   1.320       .  A
N91          N97   1.320       .  A
N91        Mn120   2.204   1_554  S
N92          C99   1.348       .  A
N93          N95   1.318       .  A
N93          N94   1.324       .  A
N93        Mn109   2.226   1_455  S
N94         C100   1.355       .  A
N95          N96   1.324       .  A
N95        Mn120   2.205   1_454  S
N96         C100   1.352       .  A
N97          N98   1.326       .  A
N97        Mn109   2.234       .  S
N98          C99   1.357       .  A
C99         C292   1.484       .  S
C100        C177   1.486       .  S
N101        N107   1.321       .  A
N101        N102   1.322       .  A
N101       Mn131   2.221   1_455  S
N102        C110   1.352       .  A
N103        N104   1.326       .  A
N103        N105   1.321       .  A
N103       Mn109   2.236       .  S
N104        C111   1.357       .  A
N105        N106   1.317       .  A
N105       Mn131   2.180       .  S
N106        C111   1.344       .  A
N107        N108   1.322       .  A
N107       Mn109   2.208   1_455  S
N108        C110   1.351       .  A
Mn109      Cl133   2.565       .  S
C110        C228   1.475       .  S
C111        C241   1.474       .  S
N112        N113   1.326       .  A
N112        N118   1.317       .  A
N112       Mn679   2.217   1_455  S
N113        C121   1.358       .  A
N114        N116   1.317       .  A
N114        N115   1.323       .  A
N114       Mn132   2.225       .  S
N115        C122   1.358       .  A
N116        N117   1.319       .  A
N116       Mn679   2.191       .  S
N117        C122   1.348       .  A
N118        N119   1.318       .  A
N118       Mn132   2.213   1_455  S
N119        C121   1.352       .  A
Mn120       N671   2.218   1_655  S
Mn120       N675   2.185       .  S
Mn120      Cl133   2.555   1_556  S
C121        C196   1.506       .  S
C122        C276   1.495       .  S
N123        N124   1.326       .  A
N123        N129   1.318       .  A
N123       Mn690   2.224       .  S
N124        C134   1.358       .  A
N125        N126   1.321       .  A
N125        N127   1.317       .  A
N125       Mn132   2.221   1_455  S
N126        C135   1.356       .  A
N127        N128   1.325       .  A
N127       Mn690   2.203   1_455  S
N128        C135   1.353       .  A
N129        N130   1.322       .  A
N129       Mn132   2.224       .  S
N130        C134   1.355       .  A
Mn131       N682   2.236   1_554  S
Mn131       N686   2.199   1_654  S
Mn131      Cl133   2.560       .  S
Mn132      Cl692   2.554       .  S
Cl133      Mn691   2.552   1_554  S
C134        C257   1.512       .  S
C135        C209   1.493       .  S
C136        H137   1.088       .  S
C136        C142   1.535       .  S
C136        C141   1.549       .  S
C136        C140   1.538       .  S
C138        H139   1.110       .  S
C138        C144   1.542       .  S
C138        C143   1.566       .  S
C138        C145   1.558       .  S
C140        C143   1.401       .  D
C140        C548   1.505       .  S
C141        C144   1.371       .  D
C141        C225   1.497       .  S
C142        C145   1.385       .  D
C142        C340   1.526       .  S
C143        C529   1.522       .  S
C144        C212   1.522       .  S
C145        C353   1.503       .  S
C146        H147   1.078       .  S
C146        C152   1.545       .  S
C146        C151   1.522       .  S
C146        C150   1.559       .  S
C148        H149   1.099       .  S
C148        C154   1.570       .  S
C148        C153   1.517       .  S
C148        C155   1.561       .  S
C150        C153   1.376       .  D
C150        C516   1.489       .  S
C151        C154   1.384       .  D
C151        C324   1.519       .  S
C152        C155   1.392       .  D
C152        C244   1.531       .  S
C153        C497   1.484       .  S
C154        C308   1.532       .  S
C155        C260   1.526       .  S
C156        H157   1.108       .  S
C156        C162   1.561       .  S
C156        C161   1.549       .  S
C156        C160   1.530       .  S
C158        H159   1.105       .  S
C158        C164   1.562       .  S
C158        C163   1.557       .  S
C158        C165   1.537       .  S
C160        C163   1.376       .  D
C160        C452   1.494       .  S
C161        C164   1.393       .  D
C161        C420   1.522       .  S
C162        C165   1.385       .  D
C162        C180   1.507       .  S
C163        C433   1.491       .  S
C164        C401   1.531       .  S
C165        C193   1.520       .  S
C166        H167   1.100       .  S
C166        C172   1.558       .  S
C166        C171   1.542       .  S
C166        C170   1.556       .  S
C168        H169   1.111       .  S
C168        C174   1.555       .  S
C168        C173   1.523       .  S
C168        C175   1.542       .  S
C170        C173   1.377       .  D
C170        C484   1.492       .  S
C171        C174   1.377       .  D
C171        C289   1.512       .  S
C172        C175   1.396       .  D
C172        C372   1.527       .  S
C173        C468   1.488       .  S
C174        C273   1.511       .  S
C175        C388   1.519       .  S
C176        C177   1.409       .  A
C176        C181   1.418       .  A
C176        H183   1.084       .  S
C177        C178   1.408       .  A
C178        C179   1.403       .  A
C178        C185   1.518       .  S
C179        C180   1.407       .  A
C179        H184   1.076       .  S
C180        C181   1.420       .  A
C181        C182   1.516       .  S
C182        F186   1.384       .  S
C182        F187   1.383       .  S
C182        F188   1.380       .  S
C185        F189   1.383       .  S
C185        F190   1.381       .  S
C185        F191   1.383       .  S
C192        C193   1.401       .  A
C192        C197   1.404       .  A
C192        H199   1.058       .  S
C193        C194   1.422       .  A
C194        C195   1.420       .  A
C194        C201   1.520       .  S
C195        C196   1.412       .  A
C195        H200   1.082       .  S
C196        C197   1.423       .  A
C197        C198   1.526       .  S
C198        F202   1.384       .  S
C198        F203   1.385       .  S
C198        F204   1.383       .  S
C201        F205   1.382       .  S
C201        F206   1.379       .  S
C201        F207   1.385       .  S
C208        C209   1.390       .  A
C208        C213   1.398       .  A
C208        H215   1.086       .  S
C209        C210   1.422       .  A
C210        C211   1.422       .  A
C210        C217   1.516       .  S
C211        C212   1.409       .  A
C211        H216   1.082       .  S
C212        C213   1.429       .  A
C213        C214   1.496       .  S
C214        F218   1.384       .  S
C214        F219   1.350       .  S
C214        F220   1.384       .  S
C217        F221   1.384       .  S
C217        F222   1.382       .  S
C217        F223   1.385       .  S
C224        C225   1.407       .  A
C224        C229   1.402       .  A
C224        H231   1.074       .  S
C225        C226   1.418       .  A
C226        C227   1.411       .  A
C226        C233   1.515       .  S
C227        C228   1.404       .  A
C227        H232   1.085       .  S
C228        C229   1.407       .  A
C229        C230   1.519       .  S
C230        F234   1.385       .  S
C230        F235   1.382       .  S
C230        F236   1.383       .  S
C233        F237   1.383       .  S
C233        F238   1.381       .  S
C233        F239   1.383       .  S
C240        C241   1.402       .  A
C240        C245   1.413       .  A
C240        H247   1.084       .  S
C241        C242   1.403       .  A
C242        C243   1.403       .  A
C242        C249   1.521       .  S
C243        C244   1.421       .  A
C243        H248   1.069       .  S
C244        C245   1.426       .  A
C245        C246   1.516       .  S
C246        F250   1.384       .  S
C246        F251   1.381       .  S
C246        F252   1.382       .  S
C249        F253   1.383       .  S
C249        F254   1.383       .  S
C249        F255   1.384       .  S
C256        C257   1.412       .  A
C256        C261   1.417       .  A
C256        H263   1.084       .  S
C257        C258   1.423       .  A
C258        C259   1.411       .  A
C258        C265   1.522       .  S
C259        C260   1.410       .  A
C259        H264   1.073       .  S
C260        C261   1.421       .  A
C261        C262   1.517       .  S
C262        F266   1.384       .  S
C262        F267   1.381       .  S
C262        F268   1.383       .  S
C265        F269   1.383       .  S
C265        F270   1.383       .  S
C265        F271   1.385       .  S
C272        C273   1.404       .  A
C272        C277   1.413       .  A
C272        H279   1.082       .  S
C273        C274   1.435       .  A
C274        C275   1.403       .  A
C274        C281   1.514       .  S
C275        C276   1.396       .  A
C275        H280   1.085       .  S
C276        C277   1.424       .  A
C277        C278   1.519       .  S
C278        F282   1.385       .  S
C278        F283   1.384       .  S
C278        F284   1.383       .  S
C281        F285   1.383       .  S
C281        F286   1.359       .  S
C281        F287   1.385       .  S
C288        C289   1.413       .  A
C288        C293   1.410       .  A
C288        H295   1.081       .  S
C289        C290   1.423       .  A
C290        C291   1.412       .  A
C290        C297   1.518       .  S
C291        C292   1.403       .  A
C291        H296   1.085       .  S
C292        C293   1.410       .  A
C293        C294   1.517       .  S
C294        F298   1.384       .  S
C294        F299   1.383       .  S
C294        F300   1.383       .  S
C297        F301   1.383       .  S
C297        F302   1.381       .  S
C297        F303   1.384       .  S
C304        C305   1.397       .  A
C304        C309   1.408       .  A
C304        H311   1.085       .  S
C305        C306   1.427       .  A
C306        C307   1.422       .  A
C306        C313   1.517       .  S
C307        C308   1.409       .  A
C307        H312   1.082       .  S
C308        C309   1.440       .  A
C309        C310   1.516       .  S
C310        F314   1.386       .  S
C310        F315   1.382       .  S
C310        F316   1.362       .  S
C313        F317   1.384       .  S
C313        F318   1.383       .  S
C313        F319   1.385       .  S
C320        C321   1.389       .  A
C320        C325   1.407       .  A
C320        H327   1.084       .  S
C321        C322   1.414       .  A
C322        C323   1.405       .  A
C322        C329   1.515       .  S
C323        C324   1.409       .  A
C323        H328   1.084       .  S
C324        C325   1.446       .  A
C325        C326   1.526       .  S
C326        F330   1.383       .  S
C326        F331   1.368       .  S
C326        F332   1.386       .  S
C329        F333   1.381       .  S
C329        F334   1.383       .  S
C329        F335   1.384       .  S
C336        C337   1.412       .  A
C336        C341   1.425       .  A
C336        H343   1.083       .  S
C337        C338   1.419       .  A
C338        C339   1.411       .  A
C338        C345   1.521       .  S
C339        C340   1.409       .  A
C339        H344   1.074       .  S
C340        C341   1.418       .  A
C341        C342   1.513       .  S
C342        F346   1.383       .  S
C342        F347   1.381       .  S
C342        F348   1.384       .  S
C345        F349   1.383       .  S
C345        F350   1.382       .  S
C345        F351   1.385       .  S
C352        C353   1.400       .  A
C352        C357   1.404       .  A
C352        H359   1.073       .  S
C353        C354   1.415       .  A
C354        C355   1.416       .  A
C354        C361   1.516       .  S
C355        C356   1.410       .  A
C355        H360   1.082       .  S
C356        C357   1.425       .  A
C357        C358   1.524       .  S
C358        F362   1.385       .  S
C358        F363   1.383       .  S
C358        F364   1.383       .  S
C361        F365   1.382       .  S
C361        F366   1.381       .  S
C361        F367   1.384       .  S
C368        C369   1.405       .  A
C368        C373   1.405       .  A
C368        H375   1.084       .  S
C369        C370   1.420       .  A
C370        C371   1.411       .  A
C370        C377   1.517       .  S
C371        C372   1.405       .  A
C371        H376   1.075       .  S
C372        C373   1.420       .  A
C373        C374   1.516       .  S
C374        F378   1.384       .  S
C374        F379   1.384       .  S
C374        F380   1.382       .  S
C377        F381   1.380       .  S
C377        F382   1.379       .  S
C377        F383   1.385       .  S
C384        C385   1.413       .  A
C384        C389   1.415       .  A
C384        H391   1.084       .  S
C385        C386   1.421       .  A
C386        C387   1.408       .  A
C386        C393   1.526       .  S
C387        C388   1.409       .  A
C387        H392   1.068       .  S
C388        C389   1.418       .  A
C389        C390   1.517       .  S
C390        F394   1.383       .  S
C390        F395   1.381       .  S
C390        F396   1.383       .  S
C393        F397   1.381       .  S
C393        F398   1.383       .  S
C393        F399   1.384       .  S
C400        C401   1.416       .  A
C400        C405   1.411       .  A
C400        H407   1.073       .  S
C401        C402   1.430       .  A
C402        C403   1.415       .  A
C402        C409   1.517       .  S
C403        C404   1.402       .  A
C403        H408   1.084       .  S
C404        C405   1.407       .  A
C405        C406   1.517       .  S
C406        F410   1.382       .  S
C406        F411   1.383       .  S
C406        F412   1.383       .  S
C409        F413   1.379       .  S
C409        F414   1.383       .  S
C409        F415   1.384       .  S
C416        C417   1.409       .  A
C416        C421   1.414       .  A
C416        H423   1.084       .  S
C417        C418   1.429       .  A
C418        C419   1.418       .  A
C418        C425   1.522       .  S
C419        C420   1.409       .  A
C419        H424   1.078       .  S
C420        C421   1.424       .  A
C421        C422   1.518       .  S
C422        F426   1.384       .  S
C422        F427   1.378       .  S
C422        F428   1.383       .  S
C425        F429   1.383       .  S
C425        F430   1.383       .  S
C425        F431   1.385       .  S
C432        C433   1.396       .  A
C432        C437   1.395       .  A
C432        H439   1.077       .  S
C433        C434   1.426       .  A
C434        C435   1.404       .  A
C434        C441   1.513       .  S
C435        C436   1.397       .  A
C435        H440   1.083       .  S
C436        C437   1.421       .  A
C437        C438   1.523       .  S
C438        F442   1.382       .  S
C438        F443   1.383       .  S
C438        F444   1.384       .  S
C441        F445   1.385       .  S
C441        F446   1.373       .  S
C441        F447   1.365       .  S
C448        C449   1.400       .  A
C448        C453   1.393       .  A
C448        H455   1.086       .  S
C449        C450   1.408       .  A
C450        C451   1.401       .  A
C450        C457   1.519       .  S
C451        C452   1.410       .  A
C451        H456   1.076       .  S
C452        C453   1.417       .  A
C453        C454   1.511       .  S
C454        F458   1.383       .  S
C454        F459   1.372       .  S
C454        F460   1.384       .  S
C457        F461   1.382       .  S
C457        F462   1.384       .  S
C457        F463   1.384       .  S
C464        C465   1.399       .  A
C464        C469   1.392       .  A
C464        H471   1.084       .  S
C465        C466   1.409       .  A
C466        C467   1.392       .  A
C466        C473   1.523       .  S
C467        C468   1.408       .  A
C467        H472   1.071       .  S
C468        C469   1.422       .  A
C469        C470   1.514       .  S
C470        F474   1.384       .  S
C470        F475   1.383       .  S
C470        F476   1.363       .  S
C473        F477   1.383       .  S
C473        F478   1.384       .  S
C473        F479   1.384       .  S
C480        C481   1.393       .  A
C480        C485   1.389       .  A
C480        H487   1.086       .  S
C481        C482   1.403       .  A
C482        C483   1.393       .  A
C482        C489   1.518       .  S
C483        C484   1.411       .  A
C483        H488   1.074       .  S
C484        C485   1.422       .  A
C485        C486   1.511       .  S
C486        F490   1.385       .  S
C486        F491   1.383       .  S
C486        F492   1.364       .  S
C489        F493   1.376       .  S
C489        F494   1.383       .  S
C489        F495   1.385       .  S
C496        C497   1.411       .  A
C496        C501   1.397       .  A
C496        H503   1.076       .  S
C497        C498   1.422       .  A
C498        C499   1.391       .  A
C498        C505   1.522       .  S
C499        C500   1.395       .  A
C499        H504   1.084       .  S
C500        C501   1.402       .  A
C501        C502   1.518       .  S
C502        F506   1.384       .  S
C502        F507   1.383       .  S
C502        F508   1.383       .  S
C505        F509   1.380       .  S
C505        F510   1.374       .  S
C505        F511   1.385       .  S
C512        C513   1.398       .  A
C512        C517   1.400       .  A
C512        H519   1.084       .  S
C513        C514   1.417       .  A
C514        C515   1.396       .  A
C514        C521   1.520       .  S
C515        C516   1.398       .  A
C515        H520   1.076       .  S
C516        C517   1.420       .  A
C517        C518   1.512       .  S
C518        F522   1.384       .  S
C518        F523   1.372       .  S
C518        F524   1.381       .  S
C521        F525   1.378       .  S
C521        F526   1.379       .  S
C521        F527   1.384       .  S
C528        C529   1.412       .  A
C528        C533   1.402       .  A
C528        H535   1.072       .  S
C529        C530   1.443       .  A
C530        C531   1.408       .  A
C530        C537   1.526       .  S
C531        C532   1.396       .  A
C531        H536   1.086       .  S
C532        C533   1.408       .  A
C533        C534   1.521       .  S
C534        F538   1.385       .  S
C534        F539   1.384       .  S
C534        F540   1.382       .  S
C537        F541   1.367       .  S
C537        F542   1.382       .  S
C537        F543   1.383       .  S
C544        C545   1.392       .  A
C544        C549   1.395       .  A
C544        H551   1.085       .  S
C545        C546   1.414       .  A
C546        C547   1.399       .  A
C546        C553   1.519       .  S
C547        C548   1.403       .  A
C547        H552   1.080       .  S
C548        C549   1.428       .  A
C549        C550   1.525       .  S
C550        F554   1.386       .  S
C550        F555   1.379       .  S
C550        F556   1.384       .  S
C553        F557   1.383       .  S
C553        F558   1.383       .  S
C553        F559   1.383       .  S
N560        N561   1.313       .  A
N560        N566   1.312       .  A
N561        C568   1.344       .  A
N562        N564   1.312       .  A
N562        N563   1.307       .  A
N563        C569   1.347       .  A
N564        N565   1.319       .  A
N564       Mn589   2.162   1_556  S
N565        C569   1.348       .  A
N566        N567   1.321       .  A
N566       Mn578   2.210       .  S
N567        C568   1.357       .  A
C568       C1072   1.466       .  S
C569       C1059   1.449       .  S
N570        N576   1.316       .  A
N570        N571   1.317       .  A
N571        C579   1.350       .  A
N572        N573   1.309       .  A
N572        N574   1.313       .  A
N572       Mn578   2.141       .  S
N573        C580   1.340       .  A
N574        N575   1.319       .  A
N574       Mn600   2.198       .  S
N575        C580   1.356       .  A
N576        N577   1.322       .  A
N577        C579   1.356       .  A
Mn578      Cl602   2.500       .  S
C579       C1091   1.478       .  S
C580       C1104   1.451       .  S
N581        N582   1.316       .  A
N581        N587   1.308       .  A
N581       Mn589   2.159   1_556  S
N582        C590   1.351       .  A
N583        N585   1.308       .  A
N583        N584   1.313       .  A
N584        C591   1.349       .  A
N585        N586   1.314       .  A
N586        C591   1.348       .  A
N587        N588   1.306       .  A
N587       Mn601   2.133       .  S
N588        C590   1.344       .  A
C590       C1024   1.453       .  S
C591       C1040   1.450       .  S
N592        N593   1.323       .  A
N592        N598   1.312       .  A
N592       Mn600   2.199       .  S
N593        C603   1.357       .  A
N594        N595   1.309       .  A
N594        N596   1.311       .  A
N594       Mn601   2.148       .  S
N595        C604   1.342       .  A
N596        N597   1.320       .  A
N597        C604   1.359       .  A
N598        N599   1.306       .  A
N599        C603   1.339       .  A
Mn600      Cl602   2.554       .  S
C603       C1008   1.452       .  S
C604        C995   1.473       .  S
N605        N606   1.325       .  A
N605        N611   1.319       .  A
N605       Mn634   2.240       .  S
N606        C613   1.360       .  A
N607        N609   1.319       .  A
N607        N608   1.325       .  A
N607       Mn623   2.233   1_545  S
N608        C614   1.356       .  A
N609        N610   1.327       .  A
N609       Mn634   2.230   1_545  S
N610        C614   1.357       .  A
N611        N612   1.324       .  A
N611       Mn623   2.228       .  S
N612        C613   1.356       .  A
C613        C976   1.516       .  S
C614        C896   1.506       .  S
N615        N621   1.320       .  A
N615        N616   1.322       .  A
N615       Mn645   2.205   1_545  S
N616        C624   1.351       .  A
N617        N618   1.323       .  A
N617        N619   1.318       .  A
N617       Mn623   2.227       .  S
N618        C625   1.356       .  A
N619        N620   1.319       .  A
N619       Mn645   2.182       .  S
N620        C625   1.347       .  A
N621        N622   1.320       .  A
N621       Mn623   2.213   1_545  S
N622        C624   1.351       .  A
Mn623      Cl647   2.556       .  S
C624        C880   1.472       .  S
C625        C928   1.488       .  S
N626        N627   1.327       .  A
N626        N632   1.320       .  A
N627        C635   1.360       .  A
N628        N630   1.321       .  A
N628        N629   1.325       .  A
N628       Mn646   2.226       .  S
N629        C636   1.353       .  A
N630        N631   1.326       .  A
N631        C636   1.355       .  A
N632        N633   1.318       .  A
N632       Mn646   2.207   1_545  S
N633        C635   1.349       .  A
Mn634      Cl647   2.573       .  S
C635        C915   1.495       .  S
C636        C963   1.491       .  S
N637        N638   1.324       .  A
N637        N643   1.316       .  A
N638        C648   1.354       .  A
N639        N640   1.326       .  A
N639        N641   1.316       .  A
N639       Mn646   2.236   1_545  S
N640        C649   1.361       .  A
N641        N642   1.322       .  A
N642        C649   1.352       .  A
N643        N644   1.320       .  A
N643       Mn646   2.228       .  S
N644        C648   1.356       .  A
Mn645      Cl647   2.560       .  S
C648        C944   1.508       .  S
C649        C864   1.510       .  S
N650        N651   1.321       .  A
N650        N656   1.320       .  A
N650       Mn679   2.206       .  S
N651        C658   1.349       .  A
N652        N654   1.319       .  A
N652        N653   1.326       .  A
N652       Mn668   2.238   1_455  S
N653        C659   1.357       .  A
N654        N655   1.321       .  A
N654       Mn679   2.195   1_455  S
N655        C659   1.348       .  A
N656        N657   1.326       .  A
N656       Mn668   2.236       .  S
N657        C658   1.357       .  A
C658        C851   1.483       .  S
C659        C736   1.485       .  S
N660        N666   1.321       .  A
N660        N661   1.322       .  A
N660       Mn690   2.221   1_455  S
N661        C669   1.352       .  A
N662        N663   1.327       .  A
N662        N664   1.320       .  A
N662       Mn668   2.237       .  S
N663        C670   1.357       .  A
N664        N665   1.317       .  A
N664       Mn690   2.189       .  S
N665        C670   1.345       .  A
N666        N667   1.323       .  A
N666       Mn668   2.220   1_455  S
N667        C669   1.353       .  A
Mn668      Cl692   2.572       .  S
C669        C787   1.481       .  S
C670        C800   1.481       .  S
N671        N672   1.326       .  A
N671        N677   1.318       .  A
N672        C680   1.358       .  A
N673        N675   1.318       .  A
N673        N674   1.325       .  A
N673       Mn691   2.231       .  S
N674        C681   1.360       .  A
N675        N676   1.318       .  A
N676        C681   1.346       .  A
N677        N678   1.317       .  A
N677       Mn691   2.210   1_455  S
N678        C680   1.350       .  A
Mn679      Cl692   2.554       .  S
C680        C755   1.504       .  S
C681        C835   1.498       .  S
N682        N683   1.328       .  A
N682        N688   1.318       .  A
N683        C693   1.360       .  A
N684        N685   1.320       .  A
N684        N686   1.316       .  A
N684       Mn691   2.221   1_455  S
N685        C694   1.357       .  A
N686        N687   1.325       .  A
N687        C694   1.354       .  A
N688        N689   1.323       .  A
N688       Mn691   2.233       .  S
N689        C693   1.356       .  A
Mn690      Cl692   2.555       .  S
C693        C816   1.519       .  S
C694        C768   1.503       .  S
C695        H696   1.089       .  S
C695        C701   1.532       .  S
C695        C700   1.548       .  S
C695        C699   1.540       .  S
C697        H698   1.111       .  S
C697        C703   1.539       .  S
C697        C702   1.560       .  S
C697        C704   1.561       .  S
C699        C702   1.402       .  D
C699       C1107   1.506       .  S
C700        C703   1.376       .  D
C700        C784   1.504       .  S
C701        C704   1.379       .  D
C701        C899   1.517       .  S
C702       C1088   1.523       .  S
C703        C771   1.516       .  S
C704        C912   1.502       .  S
C705        H706   1.080       .  S
C705        C711   1.556       .  S
C705        C710   1.522       .  S
C705        C709   1.554       .  S
C707        H708   1.098       .  S
C707        C713   1.570       .  S
C707        C712   1.518       .  S
C707        C714   1.558       .  S
C709        C712   1.374       .  D
C709       C1075   1.491       .  S
C710        C713   1.384       .  D
C710        C883   1.518       .  S
C711        C714   1.394       .  D
C711        C803   1.539       .  S
C712       C1056   1.485       .  S
C713        C867   1.528       .  S
C714        C819   1.525       .  S
C715        H716   1.107       .  S
C715        C721   1.559       .  S
C715        C720   1.551       .  S
C715        C719   1.529       .  S
C717        H718   1.108       .  S
C717        C723   1.559       .  S
C717        C722   1.554       .  S
C717        C724   1.541       .  S
C719        C722   1.378       .  D
C719       C1011   1.498       .  S
C720        C723   1.392       .  D
C720        C979   1.520       .  S
C721        C724   1.385       .  D
C721        C739   1.506       .  S
C722        C992   1.483       .  S
C723        C960   1.530       .  S
C724        C752   1.525       .  S
C725        H726   1.100       .  S
C725        C731   1.556       .  S
C725        C730   1.539       .  S
C725        C729   1.553       .  S
C727        H728   1.111       .  S
C727        C733   1.556       .  S
C727        C732   1.524       .  S
C727        C734   1.541       .  S
C729        C732   1.377       .  D
C729       C1043   1.494       .  S
C730        C733   1.377       .  D
C730        C848   1.509       .  S
C731        C734   1.396       .  D
C731        C931   1.526       .  S
C732       C1027   1.484       .  S
C733        C832   1.513       .  S
C734        C947   1.521       .  S
C735        C736   1.409       .  A
C735        C740   1.417       .  A
C735        H742   1.084       .  S
C736        C737   1.407       .  A
C737        C738   1.404       .  A
C737        C744   1.519       .  S
C738        C739   1.410       .  A
C738        H743   1.074       .  S
C739        C740   1.419       .  A
C740        C741   1.516       .  S
C741        F745   1.383       .  S
C741        F746   1.383       .  S
C741        F747   1.381       .  S
C744        F748   1.383       .  S
C744        F749   1.382       .  S
C744        F750   1.383       .  S
C751        C752   1.404       .  A
C751        C756   1.403       .  A
C751        H758   1.056       .  S
C752        C753   1.423       .  A
C753        C754   1.416       .  A
C753        C760   1.516       .  S
C754        C755   1.410       .  A
C754        H759   1.084       .  S
C755        C756   1.423       .  A
C756        C757   1.528       .  S
C757        F761   1.383       .  S
C757        F762   1.385       .  S
C757        F763   1.383       .  S
C760        F764   1.379       .  S
C760        F765   1.383       .  S
C760        F766   1.384       .  S
C767        C768   1.397       .  A
C767        C772   1.399       .  A
C767        H774   1.085       .  S
C768        C769   1.426       .  A
C769        C770   1.421       .  A
C769        C776   1.517       .  S
C770        C771   1.408       .  A
C770        H775   1.082       .  S
C771        C772   1.427       .  A
C772        C773   1.504       .  S
C773        F777   1.383       .  S
C773        F778   1.359       .  S
C773        F779   1.384       .  S
C776        F780   1.383       .  S
C776        F781   1.383       .  S
C776        F782   1.385       .  S
C783        C784   1.410       .  A
C783        C788   1.404       .  A
C783        H790   1.078       .  S
C784        C785   1.421       .  A
C785        C786   1.415       .  A
C785        C792   1.516       .  S
C786        C787   1.406       .  A
C786        H791   1.084       .  S
C787        C788   1.408       .  A
C788        C789   1.518       .  S
C789        F793   1.384       .  S
C789        F794   1.383       .  S
C789        F795   1.383       .  S
C792        F796   1.383       .  S
C792        F797   1.381       .  S
C792        F798   1.384       .  S
C799        C800   1.404       .  A
C799        C804   1.412       .  A
C799        H806   1.085       .  S
C800        C801   1.413       .  A
C801        C802   1.406       .  A
C801        C808   1.522       .  S
C802        C803   1.416       .  A
C802        H807   1.073       .  S
C803        C804   1.426       .  A
C804        C805   1.516       .  S
C805        F809   1.384       .  S
C805        F810   1.381       .  S
C805        F811   1.382       .  S
C808        F812   1.382       .  S
C808        F813   1.382       .  S
C808        F814   1.385       .  S
C815        C816   1.414       .  A
C815        C820   1.420       .  A
C815        H822   1.084       .  S
C816        C817   1.426       .  A
C817        C818   1.413       .  A
C817        C824   1.521       .  S
C818        C819   1.408       .  A
C818        H823   1.077       .  S
C819        C820   1.423       .  A
C820        C821   1.519       .  S
C821        F825   1.384       .  S
C821        F826   1.382       .  S
C821        F827   1.383       .  S
C824        F828   1.383       .  S
C824        F829   1.383       .  S
C824        F830   1.385       .  S
C831        C832   1.403       .  A
C831        C836   1.413       .  A
C831        H838   1.081       .  S
C832        C833   1.435       .  A
C833        C834   1.404       .  A
C833        C840   1.513       .  S
C834        C835   1.396       .  A
C834        H839   1.085       .  S
C835        C836   1.427       .  A
C836        C837   1.520       .  S
C837        F841   1.385       .  S
C837        F842   1.383       .  S
C837        F843   1.383       .  S
C840        F844   1.383       .  S
C840        F845   1.359       .  S
C840        F846   1.385       .  S
C847        C848   1.413       .  A
C847        C852   1.409       .  A
C847        H854   1.081       .  S
C848        C849   1.421       .  A
C849        C850   1.411       .  A
C849        C856   1.518       .  S
C850        C851   1.404       .  A
C850        H855   1.085       .  S
C851        C852   1.411       .  A
C852        C853   1.517       .  S
C853        F857   1.385       .  S
C853        F858   1.383       .  S
C853        F859   1.383       .  S
C856        F860   1.382       .  S
C856        F861   1.381       .  S
C856        F862   1.384       .  S
C863        C864   1.398       .  A
C863        C868   1.408       .  A
C863        H870   1.085       .  S
C864        C865   1.427       .  A
C865        C866   1.420       .  A
C865        C872   1.518       .  S
C866        C867   1.407       .  A
C866        H871   1.082       .  S
C867        C868   1.439       .  A
C868        C869   1.517       .  S
C869        F873   1.386       .  S
C869        F874   1.381       .  S
C869        F875   1.363       .  S
C872        F876   1.383       .  S
C872        F877   1.383       .  S
C872        F878   1.385       .  S
C879        C880   1.389       .  A
C879        C884   1.408       .  A
C879        H886   1.084       .  S
C880        C881   1.413       .  A
C881        C882   1.405       .  A
C881        C888   1.516       .  S
C882        C883   1.409       .  A
C882        H887   1.084       .  S
C883        C884   1.445       .  A
C884        C885   1.525       .  S
C885        F889   1.382       .  S
C885        F890   1.367       .  S
C885        F891   1.386       .  S
C888        F892   1.381       .  S
C888        F893   1.383       .  S
C888        F894   1.384       .  S
C895        C896   1.413       .  A
C895        C900   1.422       .  A
C895        H902   1.083       .  S
C896        C897   1.419       .  A
C897        C898   1.410       .  A
C897        C904   1.521       .  S
C898        C899   1.408       .  A
C898        H903   1.075       .  S
C899        C900   1.416       .  A
C900        C901   1.515       .  S
C901        F905   1.383       .  S
C901        F906   1.381       .  S
C901        F907   1.384       .  S
C904        F908   1.384       .  S
C904        F909   1.382       .  S
C904        F910   1.385       .  S
C911        C912   1.402       .  A
C911        C916   1.404       .  A
C911        H918   1.075       .  S
C912        C913   1.419       .  A
C913        C914   1.415       .  A
C913        C920   1.517       .  S
C914        C915   1.408       .  A
C914        H919   1.084       .  S
C915        C916   1.421       .  A
C916        C917   1.523       .  S
C917        F921   1.385       .  S
C917        F922   1.383       .  S
C917        F923   1.383       .  S
C920        F924   1.381       .  S
C920        F925   1.383       .  S
C920        F926   1.384       .  S
C927        C928   1.405       .  A
C927        C932   1.406       .  A
C927        H934   1.084       .  S
C928        C929   1.421       .  A
C929        C930   1.410       .  A
C929        C936   1.516       .  S
C930        C931   1.404       .  A
C930        H935   1.075       .  S
C931        C932   1.420       .  A
C932        C933   1.516       .  S
C933        F937   1.383       .  S
C933        F938   1.384       .  S
C933        F939   1.382       .  S
C936        F940   1.379       .  S
C936        F941   1.379       .  S
C936        F942   1.385       .  S
C943        C944   1.415       .  A
C943        C948   1.417       .  A
C943        H950   1.084       .  S
C944        C945   1.421       .  A
C945        C946   1.407       .  A
C945        C952   1.525       .  S
C946        C947   1.407       .  A
C946        H951   1.067       .  S
C947        C948   1.419       .  A
C948        C949   1.517       .  S
C949        F953   1.383       .  S
C949        F954   1.381       .  S
C949        F955   1.383       .  S
C952        F956   1.382       .  S
C952        F957   1.383       .  S
C952        F958   1.384       .  S
C959        C960   1.414       .  A
C959        C964   1.411       .  A
C959        H966   1.073       .  S
C960        C961   1.429       .  A
C961        C962   1.417       .  A
C961        C968   1.517       .  S
C962        C963   1.404       .  A
C962        H967   1.084       .  S
C963        C964   1.408       .  A
C964        C965   1.517       .  S
C965        F969   1.383       .  S
C965        F970   1.383       .  S
C965        F971   1.383       .  S
C968        F972   1.380       .  S
C968        F973   1.383       .  S
C968        F974   1.384       .  S
C975        C976   1.408       .  A
C975        C980   1.412       .  A
C975        H982   1.084       .  S
C976        C977   1.429       .  A
C977        C978   1.418       .  A
C977        C984   1.521       .  S
C978        C979   1.410       .  A
C978        H983   1.079       .  S
C979        C980   1.423       .  A
C980        C981   1.518       .  S
C981        F985   1.384       .  S
C981        F986   1.378       .  S
C981        F987   1.383       .  S
C984        F988   1.383       .  S
C984        F989   1.383       .  S
C984        F990   1.385       .  S
C991        C992   1.395       .  A
C991        C996   1.395       .  A
C991        H998   1.078       .  S
C992        C993   1.420       .  A
C993        C994   1.401       .  A
C993       C1000   1.511       .  S
C994        C995   1.399       .  A
C994        H999   1.083       .  S
C995        C996   1.422       .  A
C996        C997   1.523       .  S
C997       F1001   1.382       .  S
C997       F1002   1.382       .  S
C997       F1003   1.385       .  S
C1000      F1004   1.385       .  S
C1000      F1005   1.375       .  S
C1000      F1006   1.367       .  S
C1007      C1008   1.399       .  A
C1007      C1012   1.394       .  A
C1007      H1014   1.086       .  S
C1008      C1009   1.409       .  A
C1009      C1010   1.401       .  A
C1009      C1016   1.520       .  S
C1010      C1011   1.410       .  A
C1010      H1015   1.076       .  S
C1011      C1012   1.416       .  A
C1012      C1013   1.511       .  S
C1013      F1017   1.382       .  S
C1013      F1018   1.375       .  S
C1013      F1019   1.384       .  S
C1016      F1020   1.382       .  S
C1016      F1021   1.384       .  S
C1016      F1022   1.385       .  S
C1023      C1024   1.399       .  A
C1023      C1028   1.389       .  A
C1023      H1030   1.083       .  S
C1024      C1025   1.408       .  A
C1025      C1026   1.391       .  A
C1025      C1032   1.523       .  S
C1026      C1027   1.409       .  A
C1026      H1031   1.071       .  S
C1027      C1028   1.420       .  A
C1028      C1029   1.515       .  S
C1029      F1033   1.384       .  S
C1029      F1034   1.384       .  S
C1029      F1035   1.365       .  S
C1032      F1036   1.383       .  S
C1032      F1037   1.384       .  S
C1032      F1038   1.384       .  S
C1039      C1040   1.394       .  A
C1039      C1044   1.390       .  A
C1039      H1046   1.085       .  S
C1040      C1041   1.405       .  A
C1041      C1042   1.395       .  A
C1041      C1048   1.520       .  S
C1042      C1043   1.412       .  A
C1042      H1047   1.074       .  S
C1043      C1044   1.421       .  A
C1044      C1045   1.511       .  S
C1045      F1049   1.385       .  S
C1045      F1050   1.382       .  S
C1045      F1051   1.366       .  S
C1048      F1052   1.381       .  S
C1048      F1053   1.383       .  S
C1048      F1054   1.385       .  S
C1055      C1056   1.411       .  A
C1055      C1060   1.397       .  A
C1055      H1062   1.077       .  S
C1056      C1057   1.424       .  A
C1057      C1058   1.390       .  A
C1057      C1064   1.523       .  S
C1058      C1059   1.394       .  A
C1058      H1063   1.084       .  S
C1059      C1060   1.403       .  A
C1060      C1061   1.518       .  S
C1061      F1065   1.384       .  S
C1061      F1066   1.383       .  S
C1061      F1067   1.383       .  S
C1064      F1068   1.380       .  S
C1064      F1069   1.372       .  S
C1064      F1070   1.385       .  S
C1071      C1072   1.396       .  A
C1071      C1076   1.401       .  A
C1071      H1078   1.084       .  S
C1072      C1073   1.416       .  A
C1073      C1074   1.397       .  A
C1073      C1080   1.520       .  S
C1074      C1075   1.402       .  A
C1074      H1079   1.080       .  S
C1075      C1076   1.425       .  A
C1076      C1077   1.514       .  S
C1077      F1081   1.384       .  S
C1077      F1082   1.368       .  S
C1077      F1083   1.382       .  S
C1080      F1084   1.382       .  S
C1080      F1085   1.383       .  S
C1080      F1086   1.384       .  S
C1087      C1088   1.412       .  A
C1087      C1092   1.402       .  A
C1087      H1094   1.069       .  S
C1088      C1089   1.439       .  A
C1089      C1090   1.411       .  A
C1089      C1096   1.521       .  S
C1090      C1091   1.398       .  A
C1090      H1095   1.086       .  S
C1091      C1092   1.408       .  A
C1092      C1093   1.522       .  S
C1093      F1097   1.385       .  S
C1093      F1098   1.384       .  S
C1093      F1099   1.383       .  S
C1096      F1100   1.368       .  S
C1096      F1101   1.382       .  S
C1096      F1102   1.382       .  S
C1103      C1104   1.392       .  A
C1103      C1108   1.392       .  A
C1103      H1110   1.085       .  S
C1104      C1105   1.415       .  A
C1105      C1106   1.400       .  A
C1105      C1112   1.518       .  S
C1106      C1107   1.402       .  A
C1106      H1111   1.080       .  S
C1107      C1108   1.426       .  A
C1108      C1109   1.526       .  S
C1109      F1113   1.387       .  S
C1109      F1114   1.381       .  S
C1109      F1115   1.380       .  S
C1112      F1116   1.383       .  S
C1112      F1117   1.382       .  S
C1112      F1118   1.383       .  S
