geometry optimzed in LAMMPS
_audit_creation_date              2020-11-30 
_audit_creation_method            'lammps2cif' 
_symmetry_space_group_name_H-M    'P1' 
_symmetry_Int_Tables_number       1 
_symmetry_cell_setting            triclinic 
loop_ 
_symmetry_equiv_pos_as_xyz 
  x,y,z 
_cell_length_a                    31.29015399 
_cell_length_b                    30.49753287619138 
_cell_length_c                    26.520186199251402 
_cell_angle_alpha                 89.95854378223274 
_cell_angle_beta                  90.06747115553058 
_cell_angle_gamma                 89.92611652447046 
loop_ 
_atom_site_label 
_atom_site_type_symbol 
_atom_site_fract_x 
_atom_site_fract_y 
_atom_site_fract_z 
_atom_site_charge 
C1          C  0.42482943  0.59330933  0.13527340     0.44600
N2          N  0.46114813  0.57837738  0.06906614     0.03500
C3          C  0.43765662  0.39711181  0.40653089    -0.04400
H4          H  0.48048009  0.35836965  0.09357090     0.09000
C5          C  0.62104419  0.44949886  0.07084258    -0.04800
Co6        Co  0.42654663  0.50076530  0.01400518     0.74200
N7          N  0.46529140  0.41999956  0.05782478    -0.23900
Co8        Co  0.50633185  0.42373448  0.99626154     0.74100
C9          C  0.60848676  0.41094652  0.09909627     0.44700
N10         N  0.58630119  0.55270285  0.04531884     0.03100
N11         N  0.56017778  0.42498441  0.04394827     0.03200
N12         N  0.38773226  0.44941248  0.42098170    -0.44800
H13         H  0.38064575  0.53389326  0.12303468     0.09000
N14         N  0.43497446  0.44935837  0.06551650     0.03500
N15         N  0.54344038  0.41769923  0.43684238     0.03200
C16         C  0.57943842  0.40076623  0.37122730     0.44800
N17         N  0.55513406  0.58083482  0.05425289    -0.23400
C18         C  0.39471605  0.55836840  0.42239788    -0.04300
N19         N  0.45695446  0.60746860  0.10569137    -0.44500
N20         N  0.54601428  0.38878364  0.39989019    -0.44700
C21         C  0.41068874  0.59829964  0.39861444     0.44600
N22         N  0.41977593  0.45205548  0.45343817     0.03500
N23         N  0.54962226  0.57531112  0.44594660    -0.23400
N24         N  0.43251037  0.54678641  0.07156165    -0.23900
N25         N  0.57819024  0.54361102  0.44217491     0.03100
H26         H  0.54058996  0.63537311  0.40376477     0.09000
H27         H  0.62774501  0.45644106  0.38528965     0.09000
N28         N  0.44905829  0.42149943  0.44641967    -0.23900
N29         N  0.58902335  0.45619378  0.03830896    -0.23600
N30         N  0.45428645  0.57865145  0.45655844     0.03500
C31         C  0.42523860  0.40083526  0.12308645     0.44900
C32         C  0.56526532  0.60490206  0.09479565    -0.04800
N33         N  0.57434639  0.44701401  0.43572348    -0.23600
H34         H  0.64924897  0.46965926  0.07477828     0.09000
N35         N  0.40983463  0.43886233  0.10395864    -0.44800
H36         H  0.54628534  0.63120801  0.11048473     0.09000
C37         C  0.59429381  0.58713202  0.38179544     0.44700
C38         C  0.40829540  0.55310625  0.11262529    -0.04300
Co39       Co  0.50575500  0.57575814  0.50609836     0.73800
N40         N  0.61834655  0.55662931  0.07772815    -0.44500
C41         C  0.39719228  0.41607465  0.38971464     0.45000
N42         N  0.44724295  0.60937577  0.42223683    -0.44500
Co43       Co  0.58108482  0.49295720  0.49374166     0.73900
C44         C  0.59876566  0.43915282  0.39511146    -0.04800
C45         C  0.46148837  0.38800122  0.09211056    -0.04400
N46         N  0.42374756  0.54880825  0.45813058    -0.23900
N47         N  0.57075414  0.39675818  0.08010051    -0.44700
H48         H  0.45455617  0.36866786  0.39252817     0.09000
C49         C  0.55725335  0.60461992  0.40905413    -0.04800
Cl50       Cl  0.50406035  0.50368217  0.00120101    -0.47800
C51         C  0.60697085  0.58845053  0.11041229     0.44700
H52         H  0.36562665  0.54037858  0.41499200     0.08900
N53         N  0.60593080  0.55000903  0.40543383    -0.44500
C54         C  0.59071202  0.89702729  0.10732270     0.44600
N55         N  0.57554309  0.95150630  0.06034844     0.03500
C56         C  0.39150554  0.07734581  0.06068103    -0.04400
H57         H  0.36769369  0.90499884  0.03809651     0.09000
C58         C  0.44819017  0.91887491  0.37593079    -0.04800
Co59       Co  0.49596151  0.99747921  0.09377565     0.74200
N60         N  0.42080819  0.94804434  0.05437631    -0.23900
Co61       Co  0.42055818  0.99596041  0.99806926     0.74100
C62         C  0.41003247  0.89674721  0.39385610     0.44700
N63         N  0.54818326  0.95325481  0.41187653     0.03100
N64         N  0.42222435  0.95159531  0.44156082     0.03200
N65         N  0.44132609  0.07727782  0.12276700    -0.44800
H66         H  0.53202811  0.90829378  0.15785496     0.09000
N67         N  0.44958458  0.94852730  0.09084508     0.03500
N68         N  0.42101315  0.04743610  0.44284231     0.03200
C69         C  0.40730251  0.10273433  0.39633309     0.44800
N70         N  0.57667110  0.95338490  0.44862745    -0.23400
C71         C  0.54783585  0.07982670  0.12633705    -0.04300
N72         N  0.60405474  0.91992912  0.06697980    -0.44500
N73         N  0.39320478  0.07975171  0.43634957    -0.44700
C74         C  0.58601885  0.10171068  0.10804065     0.44600
N75         N  0.44749174  0.04458366  0.09065483     0.03500
N76         N  0.57562860  0.04911888  0.44970942    -0.23400
N77         N  0.54462247  0.95068529  0.09422159    -0.23900
N78         N  0.54696832  0.04932575  0.41312892     0.03100
H79         H  0.62932211  0.09120809  0.46665908     0.09000
H80         H  0.46615795  0.09078859  0.34641442     0.09000
N81         N  0.41887711  0.04394172  0.05401440    -0.23900
N82         N  0.45332036  0.95246009  0.40791923    -0.23600
N83         N  0.57330708  0.04695658  0.06058302     0.03500
C84         C  0.41062791  0.89282588  0.10717905     0.44900
C85         C  0.60410639  0.92019204  0.44153730    -0.04800
N86         N  0.45215116  0.04802236  0.40924848    -0.23600
H87         H  0.46854920  0.91113809  0.34422405     0.09000
N88         N  0.44460852  0.91596523  0.12343555    -0.44800
H89         H  0.63115287  0.91219305  0.46525429     0.09000
C90         C  0.58657885  0.10475454  0.39775370     0.44700
C91         C  0.55160167  0.91710709  0.12583744    -0.04300
Co92       Co  0.57715849  0.99939131  0.00469543     0.73800
N93         N  0.55458333  0.92113261  0.37907611    -0.44500
C94         C  0.40661551  0.09916855  0.10607969     0.45000
N95         N  0.60039294  0.07969468  0.06753482    -0.44500
Co96       Co  0.50017676  0.00077904  0.40931943     0.74200
C97         C  0.44609710  0.08201914  0.37802565    -0.04800
C98         C  0.39459710  0.91381407  0.06160909    -0.04400
N99         N  0.54238986  0.04622780  0.09442704    -0.23900
N100        N  0.39542553  0.91857627  0.43446242    -0.44700
H101        H  0.36452154  0.08519875  0.03680160     0.09000
C102        C  0.60228075  0.08307090  0.44303951    -0.04800
Cl103      Cl  0.49884985  0.99749312  0.00138911    -0.47800
C104        C  0.58918155  0.89905799  0.39576573     0.44700
H105        H  0.52788031  0.08749950  0.15841902     0.08900
N106        N  0.55245939  0.08211625  0.38096102    -0.44500
C107        C  0.90133223  0.41226323  0.11336776     0.44600
N108        N  0.95451549  0.42454339  0.06527356     0.03500
C109        C  0.08054300  0.61077429  0.05781289    -0.04400
H110        H  0.91250552  0.63757333  0.03542838     0.09000
C111        C  0.91846577  0.54742697  0.37786811    -0.04800
Co112      Co  0.00141846  0.50592875  0.09486902     0.74200
N113        N  0.95413062  0.58306714  0.05342719    -0.23900
Co114      Co  0.00008447  0.58089393  0.99660480     0.74100
C115        C  0.89738530  0.58670442  0.39635883     0.44700
N116        N  0.95244866  0.44487236  0.41348047     0.03100
N117        N  0.95223462  0.57417484  0.44213871     0.03200
N118        N  0.08003179  0.56112377  0.12141200    -0.44800
H119        H  0.91448009  0.47360856  0.16122769     0.09000
N120        N  0.95453493  0.55445357  0.09082840     0.03500
N121        N  0.04572574  0.57483267  0.43960595     0.03200
C122        C  0.09807917  0.58879450  0.39074635     0.44800
N123        N  0.95318608  0.41568524  0.45031075    -0.23400
C124        C  0.08138912  0.45203003  0.12775839    -0.04300
N125        N  0.92273859  0.39673891  0.07315762    -0.44500
N126        N  0.07699251  0.60326966  0.43172271    -0.44700
C127        C  0.10206269  0.41210486  0.11041295     0.44600
N128        N  0.04804915  0.55453137  0.08951103     0.03500
N129        N  0.04687238  0.41601679  0.44799088    -0.23400
N130        N  0.95494502  0.45720845  0.09795018    -0.23900
N131        N  0.04610188  0.44520617  0.41116725     0.03100
H132        H  0.08853433  0.36113453  0.46414694     0.09000
H133        H  0.08495336  0.52815638  0.34165484     0.09000
N134        N  0.04759698  0.58304982  0.05199862    -0.23900
N135        N  0.95206898  0.54212635  0.40866319    -0.23600
N136        N  0.04785940  0.42460713  0.06368860     0.03500
C137        C  0.90075000  0.59549433  0.10607304     0.44900
C138        C  0.91975621  0.38849203  0.44452115    -0.04800
N139        N  0.04526774  0.54273471  0.40619762    -0.23600
H140        H  0.90998782  0.52642221  0.34658566     0.09000
N141        N  0.92299063  0.56073356  0.12330492    -0.44800
H142        H  0.91182596  0.36119022  0.46879520     0.09000
C143        C  0.09962307  0.40424244  0.39418338     0.44700
C144        C  0.92233192  0.45213281  0.13014425    -0.04300
Co145      Co  0.00040304  0.42028983  0.00871256     0.73800
N146        N  0.91981766  0.43929598  0.38220647    -0.44500
C147        C  0.10175840  0.59598644  0.10369092     0.45000
N148        N  0.07979278  0.39669473  0.07073797    -0.44500
Co149      Co  0.99900535  0.49365736  0.40871452     0.73900
C150        C  0.07737103  0.54886921  0.37350656    -0.04800
C151        C  0.92108195  0.61058330  0.05991684    -0.04400
N152        N  0.04809989  0.45722012  0.09644414    -0.23900
N153        N  0.91985230  0.60177735  0.43611439    -0.44700
H154        H  0.08838411  0.63788441  0.03321330     0.09000
C155        C  0.07980152  0.38857234  0.44040540    -0.04800
Cl156      Cl  0.00015789  0.50057609  0.00265114    -0.47800
C157        C  0.89786160  0.40441022  0.39949391     0.44700
H158        H  0.08982953  0.47342434  0.15870628     0.08900
N159        N  0.07725354  0.43933589  0.37801854    -0.44500
C160        C  0.32097670  0.32232934  0.20108941     0.47600
H161        H  0.32195786  0.32258742  0.15919890    -0.01400
C162        C  0.31786269  0.32182076  0.29942788     0.47600
H163        H  0.31659657  0.32116053  0.34130655    -0.01400
C164        C  0.35204177  0.35497495  0.22600924    -0.15100
C165        C  0.27696649  0.33419880  0.22290587    -0.14900
C166        C  0.33229569  0.27783552  0.22468326    -0.15300
C167        C  0.35034635  0.35466804  0.27768493    -0.15200
C168        C  0.27537331  0.33391737  0.27440192    -0.14800
C169        C  0.33049205  0.27765887  0.27618981    -0.15100
C170        C  0.68530855  0.31804267  0.19739316     0.47600
H171        H  0.68803051  0.31563902  0.15574138    -0.01400
C172        C  0.67966329  0.32154666  0.29538643     0.47600
H173        H  0.67752588  0.32301953  0.33717807    -0.01400
C174        C  0.65169637  0.35119069  0.21600645    -0.15100
C175        C  0.67233378  0.27463938  0.22204634    -0.14900
C176        C  0.72684612  0.33163079  0.22373121    -0.15300
C177        C  0.64891244  0.35306303  0.26766248    -0.15200
C178        C  0.66926004  0.27636046  0.27336664    -0.14800
C179        C  0.72412569  0.33328357  0.27512039    -0.15100
C180        C  0.32113157  0.67276378  0.20713038     0.47600
H181        H  0.32332129  0.67139235  0.16532691    -0.01400
C182        C  0.31563518  0.67602801  0.30520263     0.47600
H183        H  0.31299430  0.67756776  0.34696039    -0.01400
C184        C  0.34878240  0.63820516  0.23448234    -0.15100
C185        C  0.33509316  0.71676906  0.22967687    -0.14900
C186        C  0.27580871  0.66498410  0.22730775    -0.15300
C187        C  0.34581112  0.63985589  0.28606318    -0.15200
C188        C  0.33223023  0.71838508  0.28103330    -0.14800
C189        C  0.27306105  0.66661052  0.27872468    -0.15100
C190        C  0.68538281  0.68128949  0.20258279     0.47600
H191        H  0.68715541  0.68181956  0.16072010    -0.01400
C192        C  0.68136745  0.68122456  0.30073523     0.47600
H193        H  0.67999599  0.68200462  0.34257017    -0.01400
C194        C  0.64955008  0.65202673  0.22370363    -0.15100
C195        C  0.72625231  0.66511226  0.22820418    -0.14900
C196        C  0.67661379  0.72642068  0.22557779    -0.15300
C197        C  0.64708993  0.65219625  0.27548201    -0.15200
C198        C  0.72421262  0.66489273  0.27965246    -0.14800
C199        C  0.67438854  0.72643457  0.27700229    -0.15100
C200        C  0.24008283  0.65334230  0.19526339    -0.16400
C201        C  0.20897398  0.64208631  0.17164075     0.07700
C202        C  0.17170283  0.62737772  0.14660712     0.09500
C203        C  0.13974102  0.61366937  0.12654967    -0.17200
C204        C  0.13502377  0.60941946  0.36938512    -0.16400
C205        C  0.16630178  0.62560866  0.35066554     0.07700
C206        C  0.20317689  0.64277133  0.32746524     0.09500
C207        C  0.23487890  0.65524761  0.30618475    -0.17200
C208        C  0.23780442  0.34621294  0.30290216    -0.16400
C209        C  0.20603608  0.35796130  0.32484945     0.07700
C210        C  0.16870698  0.37314121  0.34926807     0.09500
C211        C  0.13703774  0.38698332  0.36976803    -0.17200
C212        C  0.14021131  0.39250295  0.13024224    -0.16400
C213        C  0.17238606  0.37700189  0.14774839     0.07700
C214        C  0.20986327  0.36016732  0.17010436     0.09500
C215        C  0.24116241  0.34726983  0.19203473    -0.17200
C216        C  0.76407416  0.34547712  0.19614514    -0.16400
C217        C  0.79524899  0.35929742  0.17499439     0.07700
C218        C  0.83201147  0.37698427  0.15227581     0.09500
C219        C  0.86364763  0.39279630  0.13411308    -0.17200
C220        C  0.75922134  0.34721421  0.30721646    -0.16400
C221        C  0.78989788  0.35950772  0.33113681     0.07700
C222        C  0.82701789  0.37445643  0.35664466     0.09500
C223        C  0.85919979  0.38767730  0.37687674    -0.17200
C224        C  0.75905847  0.65025236  0.31127164    -0.16400
C225        C  0.78965929  0.63716193  0.33450489     0.07700
C226        C  0.82674434  0.62096260  0.35854145     0.09500
C227        C  0.85893236  0.60611945  0.37688277    -0.17200
C228        C  0.86309044  0.61281355  0.12970644    -0.16400
C229        C  0.83150516  0.62602253  0.15081091     0.07700
C230        C  0.79466496  0.64019086  0.17682058     0.09500
C231        C  0.76342035  0.65162435  0.19988748    -0.17200
C232        C  0.65294730  0.24052068  0.30352593    -0.16400
C233        C  0.63800022  0.20996209  0.32640998     0.07700
C234        C  0.61995267  0.17365654  0.35180293     0.09500
C235        C  0.60461017  0.14237129  0.37296004    -0.17200
C236        C  0.65863230  0.23739970  0.19294994    -0.16400
C237        C  0.64395265  0.20636080  0.17111698     0.07700
C238        C  0.62436366  0.17006183  0.14811310     0.09500
C239        C  0.60680849  0.13894736  0.12963063    -0.17200
C240        C  0.34616664  0.24043093  0.19530064    -0.16400
C241        C  0.35899446  0.20845244  0.17314279     0.07700
C242        C  0.37498445  0.17045881  0.14902245     0.09500
C243        C  0.38919207  0.13790477  0.12926264    -0.17200
C244        C  0.38635588  0.14024746  0.37517300    -0.16400
C245        C  0.37042993  0.17182263  0.35542466     0.07700
C246        C  0.35406288  0.20879770  0.33008134     0.09500
C247        C  0.34218624  0.24027204  0.30652359    -0.17200
C248        C  0.61322108  0.86071345  0.12880096    -0.16400
C249        C  0.63157002  0.83027980  0.14785628     0.07700
C250        C  0.65106496  0.79450196  0.17216028     0.09500
C251        C  0.66478640  0.76361612  0.19521384    -0.17200
C252        C  0.65949133  0.76359508  0.30581361    -0.16400
C253        C  0.64426444  0.79454921  0.32756764     0.07700
C254        C  0.62479493  0.83081341  0.35128390     0.09500
C255        C  0.60808564  0.86189658  0.37122093    -0.17200
C256        C  0.34552030  0.75585503  0.31020789    -0.16400
C257        C  0.35848623  0.78787155  0.33183901     0.07700
C258        C  0.37534311  0.82576246  0.35474205     0.09500
C259        C  0.39075607  0.85820006  0.37305833    -0.17200
C260        C  0.39405446  0.85429981  0.13156712    -0.16400
C261        C  0.38030791  0.82195527  0.15215688     0.07700
C262        C  0.36434680  0.78428103  0.17687877     0.09500
C263        C  0.35086158  0.75284902  0.19947903    -0.17200
C264        C  0.38868796  0.62657222  0.36195769    -0.14300
C265        C  0.36919436  0.61039742  0.32096742    -0.29500
H266        H  0.39012958  0.66181561  0.36771848     0.14700
H267        H  0.37126173  0.57562486  0.31241735     0.15300
C268        C  0.40175310  0.62245693  0.16976247    -0.14300
C269        C  0.37641110  0.60740534  0.20649813    -0.29500
H270        H  0.40476474  0.65758632  0.16376047     0.14700
H271        H  0.37552293  0.57266796  0.21550802     0.15300
C272        C  0.62456467  0.61162857  0.35050929    -0.14300
C273        C  0.61445962  0.62819516  0.30526486    -0.29500
H274        H  0.65742636  0.61274619  0.36362940     0.14700
H275        H  0.58272846  0.62306592  0.28975626     0.15300
C276        C  0.63534106  0.60678231  0.14922618    -0.14300
C277        C  0.62020873  0.62797901  0.18981129    -0.29500
H278        H  0.66960570  0.60323917  0.14396685     0.14700
H279        H  0.58611613  0.62874490  0.19737073     0.15300
C280        C  0.60067218  0.37029444  0.33681916    -0.14300
C281        C  0.62130587  0.38384299  0.29560204    -0.29500
H282        H  0.60001059  0.33562348  0.34633186     0.14700
H283        H  0.61927567  0.41782426  0.28347801     0.15300
C284        C  0.62284218  0.37527031  0.18093888    -0.14300
C285        C  0.63602075  0.38720627  0.13482783    -0.29500
H286        H  0.59078214  0.38375447  0.19329611     0.14700
H287        H  0.66931342  0.38307368  0.12437250     0.15300
C288        C  0.36692049  0.39748148  0.35334889    -0.14300
C289        C  0.38020027  0.37920262  0.31030426    -0.29500
H290        H  0.33303669  0.39880903  0.36216421     0.14700
H291        H  0.41362236  0.38121144  0.29943944     0.15300
C292        C  0.37902845  0.38541324  0.19626629    -0.14300
C293        C  0.40114756  0.37112792  0.15632574    -0.29500
H294        H  0.38087512  0.41961626  0.20749385     0.14700
H295        H  0.40215551  0.33625148  0.14803847     0.15300
C296        C  0.42460355  0.59190123  0.63047282     0.44600
N297        N  0.46217441  0.57440854  0.56583370     0.03500
C298        C  0.44159842  0.40090088  0.90889475    -0.04400
H299        H  0.47039277  0.35273288  0.59221206     0.09000
C300        C  0.60992521  0.43283579  0.58304505    -0.04800
Co301      Co  0.42538437  0.49769752  0.51108174     0.74200
N302        N  0.45810254  0.41451711  0.55548376    -0.23900
Co303      Co  0.50061564  0.41546783  0.49589391     0.74100
C304        C  0.59374221  0.39265450  0.60591012     0.44700
N305        N  0.58603351  0.53936953  0.55103594     0.03100
N306        N  0.55190168  0.41165977  0.54591684     0.03200
N307        N  0.38954953  0.45050629  0.92488190    -0.44800
H308        H  0.37846052  0.53421853  0.61769847     0.09000
N309        N  0.42978758  0.44592799  0.56299137     0.03500
N310        N  0.54678509  0.42803703  0.93441896     0.03200
C311        C  0.58298823  0.40998257  0.86904152     0.44800
N312        N  0.55691702  0.57042807  0.55608927    -0.23400
C313        C  0.39243088  0.55913594  0.92395558    -0.04300
N314        N  0.45806208  0.60432244  0.60171620    -0.44500
N315        N  0.55094830  0.39739245  0.89955434    -0.44700
C316        C  0.40668850  0.59972839  0.89982354     0.44600
N317        N  0.42208841  0.45485445  0.95640549     0.03500
N318        N  0.54219605  0.58811358  0.94582325    -0.23400
N319        N  0.43226211  0.54400687  0.56811947    -0.23900
N320        N  0.57156414  0.55819780  0.93621248     0.03100
H321        H  0.52598270  0.64976784  0.91065341     0.09000
H322        H  0.62745336  0.46975202  0.87796557     0.09000
N323        N  0.45271674  0.42583649  0.94861235    -0.23900
N324        N  0.58195349  0.44197953  0.54609688    -0.23600
N325        N  0.44924012  0.58402610  0.96033848     0.03500
C326        C  0.41795981  0.39875986  0.62131628     0.44900
C327        C  0.56805410  0.59636336  0.59467722    -0.04800
N328        N  0.57516899  0.45975638  0.92988735    -0.23600
H329        H  0.63834260  0.45142190  0.59199668     0.09000
N330        N  0.40441780  0.43745931  0.60190384    -0.44800
H331        H  0.55122196  0.62551862  0.60673021     0.09000
C332        C  0.57936542  0.60642603  0.87832682     0.44700
C333        C  0.40716620  0.55205140  0.60803862    -0.04300
Co334      Co  0.50187637  0.58372082  0.00771124     0.73800
N335        N  0.61796241  0.54340524  0.58353185    -0.44500
C336        C  0.39983929  0.41776623  0.89312118     0.45000
N337        N  0.44148497  0.61353919  0.92493596    -0.44500
Co338      Co  0.58147617  0.50683425  0.98677730     0.73900
C339        C  0.59948726  0.45139142  0.88919982    -0.04800
C340        C  0.45277728  0.38321621  0.59011107    -0.04400
N341        N  0.42087820  0.55201865  0.96123552    -0.23900
N342        N  0.55813017  0.38106649  0.58062548    -0.44700
H343        H  0.45970864  0.37358634  0.89406486     0.09000
C344        C  0.54498089  0.62012099  0.91146490    -0.04800
Cl345      Cl  0.50319598  0.49553354  0.50174575    -0.47800
C346        C  0.60830702  0.57809593  0.61285583     0.44700
H347        H  0.36527247  0.53869056  0.91499463     0.08900
N348        N  0.59502911  0.56815209  0.89626607    -0.44500
C349        C  0.58617479  0.89582585  0.60580627     0.44600
N350        N  0.57269437  0.95188610  0.56026213     0.03500
C351        C  0.38997365  0.07995584  0.56165137    -0.04400
H352        H  0.36537487  0.90738797  0.53537075     0.09000
C353        C  0.44943865  0.91489358  0.87655049    -0.04800
Co354      Co  0.49369421  0.99879311  0.59403983     0.74200
N355        N  0.41815296  0.95033326  0.55349989    -0.23900
Co356      Co  0.41854397  0.99890977  0.49808374     0.74100
C357        C  0.41101336  0.89323171  0.89474655     0.44700
N358        N  0.55039988  0.95053628  0.91233902     0.03100
N359        N  0.42423738  0.94798546  0.94230749     0.03200
N360        N  0.43974282  0.07896863  0.62378482    -0.44800
H361        H  0.52760903  0.90780275  0.65629292     0.09000
N362        N  0.44672142  0.95016421  0.59019538     0.03500
N363        N  0.42244390  0.04389873  0.94184553     0.03200
C364        C  0.40863168  0.09886521  0.89463887     0.44800
N365        N  0.57919207  0.95154282  0.94874772    -0.23400
C366        C  0.54648315  0.08085779  0.62707873    -0.04300
N367        N  0.60016449  0.91916685  0.56602256    -0.44500
N368        N  0.39483328  0.07640839  0.93525724    -0.44700
C369        C  0.58482941  0.10260980  0.60883781     0.44600
N370        N  0.44567419  0.04646804  0.59134640     0.03500
N371        N  0.57659246  0.04746646  0.94899467    -0.23400
N372        N  0.54171124  0.95127885  0.59405875    -0.23900
N373        N  0.54808413  0.04685457  0.91225890     0.03100
H374        H  0.62822777  0.09175003  0.96731033     0.09000
H375        H  0.46734657  0.08634438  0.84468455     0.09000
N376        N  0.41705750  0.04633784  0.55469715    -0.23900
N377        N  0.45520406  0.94849165  0.90846378    -0.23600
N378        N  0.57183456  0.04776079  0.56146681     0.03500
C379        C  0.40782928  0.89387385  0.60451918     0.44900
C380        C  0.60695008  0.91850975  0.94188902    -0.04800
N381        N  0.45338285  0.04409134  0.90800138    -0.23600
H382        H  0.46926474  0.90713103  0.84438384     0.09000
N383        N  0.44167250  0.91678840  0.62170165    -0.44800
H384        H  0.63421781  0.91105685  0.96549276     0.09000
C385        C  0.58562356  0.10409985  0.89809294     0.44700
C386        C  0.54767991  0.91684957  0.62479495    -0.04300
Co387      Co  0.57518896  0.00054959  0.50513497     0.73800
N388        N  0.55683650  0.91802011  0.88011046    -0.44500
C389        C  0.40525772  0.10133095  0.60725204     0.45000
N390        N  0.59905801  0.08043304  0.56834583    -0.44500
Co391      Co  0.50185396  0.99740531  0.90900232     0.74200
C392        C  0.44722326  0.07775514  0.87630720    -0.04800
C393        C  0.39197266  0.91588545  0.55951645    -0.04400
N394        N  0.54083808  0.04719143  0.59524562    -0.23900
N395        N  0.39690143  0.91540117  0.93533993    -0.44700
H396        H  0.36310043  0.08825907  0.53779588     0.09000
C397        C  0.60192675  0.08253486  0.94306844    -0.04800
Cl398      Cl  0.49687496  0.99977023  0.50167491    -0.47800
C399        C  0.59180159  0.89652492  0.89663847     0.44700
H400        H  0.52643790  0.08882275  0.65898391     0.08900
N401        N  0.55241626  0.08031744  0.88071026    -0.44500
C402        C  0.90387870  0.40586510  0.61246618     0.44600
N403        N  0.95567728  0.42001244  0.56271724     0.03500
C404        C  0.08117326  0.60657220  0.55672320    -0.04400
H405        H  0.91314127  0.63333716  0.53753600     0.09000
C406        C  0.91841576  0.54883555  0.87816438    -0.04800
Co407      Co  0.00264805  0.50111577  0.59342892     0.74200
N408        N  0.95482312  0.57858729  0.55402268    -0.23900
Co409      Co  0.00018927  0.57771578  0.49673404     0.74100
C410        C  0.89782175  0.58879746  0.89547769     0.44700
N411        N  0.95198364  0.44645640  0.91618789     0.03100
N412        N  0.95244433  0.57660904  0.94168684     0.03200
N413        N  0.08183931  0.55592399  0.61931125    -0.44800
H414        H  0.91756079  0.46640761  0.66150946     0.09000
N415        N  0.95563211  0.54949690  0.59092114     0.03500
N416        N  0.04594157  0.57651639  0.93977347     0.03200
C417        C  0.09823876  0.58921976  0.89028133     0.44800
N418        N  0.95287275  0.41793764  0.95366801    -0.23400
C419        C  0.08228461  0.44691930  0.62542271    -0.04300
N420        N  0.92459762  0.39145359  0.57114808    -0.44500
N421        N  0.07742388  0.60455129  0.93109232    -0.44700
C422        C  0.10307578  0.40724582  0.60772923     0.44600
N423        N  0.04915050  0.54994137  0.58826016     0.03500
N424        N  0.04624838  0.41823690  0.95179664    -0.23400
N425        N  0.95640484  0.45207420  0.59619267    -0.23900
N426        N  0.04561075  0.44667220  0.91421613     0.03100
H427        H  0.08810396  0.36399490  0.96996598     0.09000
H428        H  0.08431990  0.52800813  0.84249097     0.09000
N429        N  0.04807343  0.57905164  0.55137538    -0.23900
N430        N  0.95194445  0.54383075  0.90914551    -0.23600
N431        N  0.04924372  0.42041784  0.56039654     0.03500
C432        C  0.90207873  0.59033009  0.60750757     0.44900
C433        C  0.92011321  0.38997475  0.94829546    -0.04800
N434        N  0.04508512  0.54393488  0.90697475    -0.23600
H435        H  0.90977895  0.52730046  0.84742173     0.09000
N436        N  0.92443918  0.55536304  0.62398156    -0.44800
H437        H  0.91269537  0.36279056  0.97297329     0.09000
C438        C  0.09950157  0.40573391  0.89902118     0.44700
C439        C  0.92470366  0.44582627  0.62940191    -0.04300
Co440      Co  0.00126278  0.41692813  0.50538247     0.73800
N441        N  0.91980407  0.43957714  0.88462469    -0.44500
C442        C  0.10325899  0.59097055  0.60152671     0.45000
N443        N  0.08106741  0.39228453  0.56749669    -0.44500
Co444      Co  0.99861433  0.49515228  0.91043182     0.73900
C445        C  0.07709179  0.54926165  0.87398716    -0.04800
C446        C  0.92189267  0.60598160  0.56139031    -0.04400
N447        N  0.04935310  0.45258252  0.59375082    -0.23900
N448        N  0.92043474  0.60447835  0.93476493    -0.44700
H449        H  0.08869031  0.63392143  0.53233339     0.09000
C450        C  0.07936372  0.39083723  0.94534671    -0.04800
Cl451      Cl  0.00079188  0.49732707  0.50107207    -0.47800
C452        C  0.89843471  0.40461426  0.90276568     0.44700
H453        H  0.09025641  0.46773189  0.65706606     0.08900
N454        N  0.07710320  0.44036434  0.88163335    -0.44500
C455        C  0.31911707  0.32194378  0.70694053     0.47600
H456        H  0.31874185  0.32159275  0.66504884    -0.01400
C457        C  0.31859959  0.32247000  0.80526068     0.47600
H458        H  0.31826773  0.32208730  0.84715111    -0.01400
C459        C  0.35027315  0.35546177  0.73028256    -0.15100
C460        C  0.27556193  0.33326540  0.72984322    -0.14900
C461        C  0.33183261  0.27796917  0.73060323    -0.15300
C462        C  0.35006581  0.35574380  0.78209639    -0.15200
C463        C  0.27523105  0.33360321  0.78135980    -0.14800
C464        C  0.33159820  0.27825490  0.78214771    -0.15100
C465        C  0.68814461  0.31704050  0.70100496     0.47600
H466        H  0.69077188  0.31493785  0.65927153    -0.01400
C467        C  0.68238644  0.32186483  0.79894199     0.47600
H468        H  0.68015706  0.32389371  0.84070289    -0.01400
C469        C  0.65882521  0.35421427  0.71938416    -0.15100
C470        C  0.67029746  0.27553312  0.72572988    -0.14900
C471        C  0.73090038  0.32574002  0.72745395    -0.15300
C472        C  0.65598569  0.35707444  0.77090385    -0.15200
C473        C  0.66721852  0.27793332  0.77705267    -0.14800
C474        C  0.72795085  0.32806531  0.77883352    -0.15100
C475        C  0.32140574  0.67189971  0.70352316     0.47600
H476        H  0.32374018  0.67051309  0.66173044    -0.01400
C477        C  0.31523211  0.67522800  0.80146383     0.47600
H478        H  0.31204888  0.67690391  0.84314674    -0.01400
C479        C  0.34963870  0.63791875  0.73099453    -0.15100
C480        C  0.33432352  0.71627076  0.72601875    -0.14900
C481        C  0.27617630  0.66317083  0.72348234    -0.15300
C482        C  0.34627738  0.63952574  0.78267234    -0.15200
C483        C  0.33108988  0.71794630  0.77737671    -0.14800
C484        C  0.27302551  0.66486611  0.77482551    -0.15100
C485        C  0.68571888  0.67789559  0.69895529     0.47600
H486        H  0.68714019  0.67748043  0.65708257    -0.01400
C487        C  0.68227731  0.67966772  0.79723165     0.47600
H488        H  0.68100880  0.68032292  0.83911773    -0.01400
C489        C  0.65344462  0.64530057  0.72145734    -0.15100
C490        C  0.72811171  0.66650965  0.72480303    -0.14900
C491        C  0.67251155  0.72252244  0.72082688    -0.15300
C492        C  0.65142068  0.64656523  0.77302053    -0.15200
C493        C  0.72630877  0.66737254  0.77627311    -0.14800
C494        C  0.67086574  0.72341839  0.77234302    -0.15100
C495        C  0.24100419  0.65064726  0.69128938    -0.16400
C496        C  0.21032343  0.63851048  0.66764230     0.07700
C497        C  0.17340364  0.62282630  0.64298632     0.09500
C498        C  0.14146477  0.60857546  0.62359328    -0.17200
C499        C  0.13503768  0.60932660  0.86780852    -0.16400
C500        C  0.16620774  0.62484889  0.84802987     0.07700
C501        C  0.20303505  0.64124348  0.82384995     0.09500
C502        C  0.23473201  0.65333873  0.80216820    -0.17200
C503        C  0.23820723  0.34607209  0.81061383    -0.16400
C504        C  0.20659491  0.35827060  0.83249258     0.07700
C505        C  0.16922461  0.37407890  0.85619303     0.09500
C506        C  0.13733010  0.38832016  0.87576722    -0.17200
C507        C  0.14036982  0.38697004  0.62916198    -0.16400
C508        C  0.17171863  0.37213593  0.64946615     0.07700
C509        C  0.20822495  0.35678086  0.67542770     0.09500
C510        C  0.23905457  0.34519743  0.69930160    -0.17200
C511        C  0.76912074  0.33722932  0.69994481    -0.16400
C512        C  0.80060334  0.35016309  0.67845242     0.07700
C513        C  0.83697781  0.36798465  0.65461512     0.09500
C514        C  0.86766496  0.38468281  0.63502035    -0.17200
C515        C  0.76333353  0.34068315  0.81077532    -0.16400
C516        C  0.79374720  0.35341660  0.83456335     0.07700
C517        C  0.82999871  0.37025517  0.85973090     0.09500
C518        C  0.86117567  0.38565589  0.87977376    -0.17200
C519        C  0.76153029  0.65422509  0.80811087    -0.16400
C520        C  0.79192787  0.64124393  0.83172537     0.07700
C521        C  0.82842863  0.62432795  0.85622337     0.09500
C522        C  0.86003421  0.60872495  0.87504994    -0.17200
C523        C  0.86483927  0.60781789  0.63168071    -0.16400
C524        C  0.83345805  0.62251123  0.65177599     0.07700
C525        C  0.79669375  0.63924400  0.67567090     0.09500
C526        C  0.76536724  0.65253757  0.69711498    -0.17200
C527        C  0.64983069  0.24291198  0.80769103    -0.16400
C528        C  0.63473954  0.21233212  0.83045184     0.07700
C529        C  0.61690933  0.17535738  0.85483359     0.09500
C530        C  0.60213864  0.14311206  0.87465063    -0.17200
C531        C  0.65550258  0.23851050  0.69669929    -0.16400
C532        C  0.64119964  0.20759690  0.67407305     0.07700
C533        C  0.62260515  0.17126345  0.64963904     0.09500
C534        C  0.60564094  0.14004421  0.63038153    -0.17200
C535        C  0.34532714  0.24063415  0.70086380    -0.16400
C536        C  0.35782632  0.20909181  0.67765167     0.07700
C537        C  0.37360410  0.17174677  0.65205095     0.09500
C538        C  0.38778267  0.13967349  0.63124912    -0.17200
C539        C  0.38938641  0.13816618  0.87529887    -0.16400
C540        C  0.37448932  0.17120008  0.85752050     0.07700
C541        C  0.35815726  0.20942981  0.83445687     0.09500
C542        C  0.34524253  0.24128933  0.81223729    -0.17200
C543        C  0.60697809  0.85756683  0.62565274    -0.16400
C544        C  0.62420678  0.82580619  0.64355234     0.07700
C545        C  0.64345860  0.78919863  0.66691364     0.09500
C546        C  0.65817807  0.75851779  0.68972168    -0.17200
C547        C  0.65592764  0.76065164  0.80104124    -0.16400
C548        C  0.64229784  0.79158349  0.82430428     0.07700
C549        C  0.62542207  0.82790649  0.85061202     0.09500
C550        C  0.61039096  0.85911258  0.87214871    -0.17200
C551        C  0.34342061  0.75569258  0.80681435    -0.16400
C552        C  0.35604271  0.78739733  0.82942727     0.07700
C553        C  0.37343547  0.82446712  0.85372133     0.09500
C554        C  0.39002939  0.85591969  0.87300039    -0.17200
C555        C  0.39151343  0.85442841  0.62732433    -0.16400
C556        C  0.37801932  0.82164535  0.64731535     0.07700
C557        C  0.36244643  0.78390196  0.67237923     0.09500
C558        C  0.34944116  0.75256106  0.69560480    -0.17200
C559        C  0.38470054  0.62661292  0.86182215    -0.14300
C560        C  0.36958855  0.61043361  0.81827604    -0.29500
H561        H  0.38330975  0.66169395  0.86873684     0.14700
H562        H  0.37491000  0.57626329  0.80857280     0.15300
C563        C  0.40238125  0.62157126  0.66550496    -0.14300
C564        C  0.37708199  0.60693457  0.70270904    -0.29500
H565        H  0.40602693  0.65664587  0.65963866     0.14700
H566        H  0.37552614  0.57216235  0.71139362     0.15300
C567        C  0.60139958  0.63456139  0.84198544    -0.14300
C568        C  0.62385546  0.61790817  0.80368776    -0.29500
H569        H  0.59983577  0.66985073  0.84743799     0.14700
H570        H  0.62284914  0.58301901  0.79549838     0.15300
C571        C  0.63824931  0.59884448  0.64808449    -0.14300
C572        C  0.62431578  0.61905538  0.68971157    -0.29500
H573        H  0.67218814  0.59775407  0.63955300     0.14700
H574        H  0.59085293  0.61688473  0.70036549     0.15300
C575        C  0.60546403  0.37853983  0.83646521    -0.14300
C576        C  0.63059413  0.39054237  0.79809826    -0.29500
H577        H  0.60118347  0.34387901  0.84462212     0.14700
H578        H  0.63261424  0.42470737  0.78676804     0.15300
C579        C  0.63573512  0.38295305  0.68360847    -0.14300
C580        C  0.61420828  0.36548307  0.64478031    -0.29500
H581        H  0.63608256  0.41821374  0.68935857     0.14700
H582        H  0.61073835  0.33011105  0.64197393     0.15300
C583        C  0.36902866  0.39741968  0.85834428    -0.14300
C584        C  0.38060300  0.38110151  0.81347772    -0.29500
H585        H  0.33570431  0.39649063  0.86976015     0.14700
H586        H  0.41310361  0.38558484  0.80003305     0.15300
C587        C  0.37656158  0.38511922  0.69874167    -0.14300
C588        C  0.39333542  0.37069105  0.65544266    -0.29500
H589        H  0.38257259  0.41844494  0.71131783     0.14700
H590        H  0.39086188  0.33620741  0.64562244     0.15300
loop_ 
_geom_bond_atom_site_label_1 
_geom_bond_atom_site_label_2 
_geom_bond_distance 
_geom_bond_site_symmetry_2 
_ccdc_geom_bond_type 
C1           N19   1.347       .  A
C1           C38   1.461       .  S
C1          C268   1.466       .  S
N2           N19   1.323       .  A
N2           N24   1.318       .  A
N2         Co334   2.074       .  S
C3           N28   1.342       .  A
C3           C41   1.460       .  S
C3           H48   1.082       .  S
H4           C45   1.082       .  S
C5           N29   1.337       .  A
C5            C9   1.449       .  S
C5           H34   1.081       .  S
Co6          N24   2.083       .  S
Co6          N14   2.095       .  S
Co6         N341   2.104   1_554  S
Co6         N317   2.078   1_554  S
Co6         Cl50   2.451       .  S
N7           C45   1.339       .  A
N7           N14   1.320       .  A
N7           Co8   2.082   1_554  S
Co8          N11   2.106   1_556  S
Co8         N323   2.100       .  S
Co8         N310   2.077       .  S
Co8         Cl50   2.443   1_556  S
C9           N47   1.355       .  A
C9          C285   1.470       .  S
N10          N17   1.320       .  A
N10          N40   1.325       .  A
N10        Co338   2.096   1_554  S
N11          N29   1.321       .  A
N11          N47   1.329       .  A
N12          C41   1.345       .  A
N12          N22   1.323       .  A
H13          C38   1.082       .  S
N14          N35   1.328       .  A
N15          N33   1.318       .  A
N15          N20   1.321       .  A
N15        Co303   2.063       .  S
C16          N20   1.344       .  A
C16          C44   1.463       .  S
C16         C280   1.462       .  S
N17          C32   1.340       .  A
N17        Co334   2.074       .  S
C18          N46   1.344       .  A
C18          C21   1.460       .  S
C18          H52   1.081       .  S
C21          N42   1.347       .  A
C21         C264   1.469       .  S
N22          N28   1.319       .  A
N22        Co301   2.076       .  S
N23          C49   1.347       .  A
N23          N25   1.320       .  A
N23         Co39   2.106       .  S
N24          C38   1.341       .  A
N25          N53   1.320       .  A
N25         Co43   2.064       .  S
H26          C49   1.081       .  S
H27          C44   1.082       .  S
N28        Co303   2.086       .  S
N29        Co338   2.075   1_554  S
N30          N42   1.324       .  A
N30          N46   1.321       .  A
N30         Co39   2.079       .  S
C31          N35   1.353       .  A
C31          C45   1.455       .  S
C31         C293   1.473       .  S
C32          C51   1.457       .  S
C32          H36   1.081       .  S
N33          C44   1.343       .  A
N33         Co43   2.092       .  S
C37          N53   1.343       .  A
C37          C49   1.467       .  S
C37         C272   1.465       .  S
Co39        N297   2.092       .  S
Co39        N312   2.083       .  S
Co39       Cl345   2.451       .  S
N40          C51   1.349       .  A
C41         C288   1.466       .  S
Co43        N305   2.083       .  S
Co43        N324   2.084       .  S
Co43       Cl345   2.448       .  S
N46        Co301   2.098       .  S
Cl50       Co334   2.448       .  S
Cl50       Co338   2.455   1_554  S
C51         C276   1.470       .  S
C54          N72   1.344       .  A
C54          C91   1.454       .  S
C54         C248   1.429       .  S
N55          N72   1.323       .  A
N55          N77   1.321       .  A
N55         Co92   2.076       .  S
C56          N81   1.342       .  A
C56          C94   1.455       .  S
C56         H101   1.081       .  S
H57          C98   1.081       .  S
C58          N82   1.340       .  A
C58          C62   1.453       .  S
C58          H87   1.082       .  S
Co59         N77   2.086       .  S
Co59         N67   2.085       .  S
Co59         N99   2.080   1_565  S
Co59         N75   2.089   1_565  S
Co59       Cl103   2.452       .  S
N60          C98   1.342       .  A
N60          N67   1.321       .  A
N60         Co61   2.089   1_554  S
Co61         N81   2.085   1_566  S
Co61        N359   2.084       .  S
Co61        N363   2.088   1_565  S
Co61       Cl103   2.452   1_556  S
C62         N100   1.347       .  A
C62         C259   1.432       .  S
N63          N70   1.320       .  A
N63          N93   1.326       .  A
N63         Co96   2.087   1_565  S
N64          N82   1.321       .  A
N64         N100   1.325       .  A
N64        Co356   2.085       .  S
N65          C94   1.348       .  A
N65          N75   1.326       .  A
H66          C91   1.082       .  S
N67          N88   1.325       .  A
N68          N86   1.321       .  A
N68          N73   1.325       .  A
N68        Co356   2.083   1_545  S
C69          N73   1.346       .  A
C69          C97   1.452       .  S
C69         C244   1.432       .  S
N70          C85   1.340       .  A
N70        Co387   2.078   1_565  S
C71          N99   1.340       .  A
C71          C74   1.453       .  S
C71         H105   1.082       .  S
C74          N95   1.345       .  A
C74         C239   1.429       .  S
N75          N81   1.321       .  A
N76         C102   1.342       .  A
N76          N78   1.320       .  A
N76        Co387   2.086       .  S
N77          C91   1.341       .  A
N78         N106   1.325       .  A
N78         Co96   2.086       .  S
H79         C102   1.081       .  S
H80          C97   1.082       .  S
N82         Co96   2.080   1_565  S
N83          N95   1.323       .  A
N83          N99   1.321       .  A
N83         Co92   2.078   1_545  S
C84          N88   1.347       .  A
C84          C98   1.455       .  S
C84         C260   1.438       .  S
C85         C104   1.452       .  S
C85          H89   1.081       .  S
N86          C97   1.340       .  A
N86         Co96   2.081       .  S
C90         N106   1.348       .  A
C90         C102   1.455       .  S
C90         C235   1.438       .  S
Co92        N365   2.083   1_554  S
Co92        N371   2.081   1_564  S
Co92       Cl103   2.453       .  S
N93         C104   1.348       .  A
C94         C243   1.439       .  S
Co96       Cl398   2.452   1_545  S
Cl103      Co391   2.452   1_554  S
C104        C255   1.435       .  S
C107        N125   1.346       .  A
C107        C144   1.453       .  S
C107        C219   1.431       .  S
N108        N125   1.324       .  A
N108        N130   1.321       .  A
N108       Co145   2.082   1_655  S
C109        N134   1.343       .  A
C109        C147   1.456       .  S
C109        H154   1.081       .  S
H110        C151   1.081       .  S
C111        N135   1.340       .  A
C111        C115   1.453       .  S
C111        H140   1.082       .  S
Co112       N130   2.082   1_455  S
Co112       N120   2.085   1_455  S
Co112       N152   2.082       .  S
Co112       N128   2.086       .  S
Co112      Cl156   2.451       .  S
N113        C151   1.342       .  A
N113        N120   1.321       .  A
N113       Co114   2.085   1_654  S
Co114       N134   2.090   1_556  S
Co114       N412   2.087   1_455  S
Co114       N416   2.086       .  S
Co114      Cl156   2.455   1_556  S
C115        N153   1.348       .  A
C115        C227   1.436       .  S
N116        N123   1.321       .  A
N116        N146   1.326       .  A
N116       Co149   2.087       .  S
N117        N135   1.321       .  A
N117        N153   1.326       .  A
N117       Co409   2.087   1_655  S
N118        C147   1.347       .  A
N118        N128   1.325       .  A
H119        C144   1.082       .  S
N120        N141   1.325       .  A
N121        N139   1.321       .  A
N121        N126   1.325       .  A
N121       Co409   2.083       .  S
C122        N126   1.346       .  A
C122        C150   1.454       .  S
C122        C204   1.434       .  S
N123        C138   1.344       .  A
N123       Co440   2.096   1_655  S
C124        N152   1.341       .  A
C124        C127   1.453       .  S
C124        H158   1.082       .  S
C127        N148   1.347       .  A
C127        C212   1.434       .  S
N128        N134   1.321       .  A
N129        C155   1.342       .  A
N129        N131   1.321       .  A
N129       Co440   2.088       .  S
N130        C144   1.340       .  A
N131        N159   1.325       .  A
N131       Co149   2.086   1_455  S
H132        C155   1.081       .  S
H133        C150   1.082       .  S
N135       Co149   2.082       .  S
N136        N148   1.325       .  A
N136        N152   1.321       .  A
N136       Co145   2.084       .  S
C137        N141   1.347       .  A
C137        C151   1.455       .  S
C137        C228   1.436       .  S
C138        C157   1.459       .  S
C138        H142   1.081       .  S
N139        C150   1.341       .  A
N139       Co149   2.085   1_455  S
C143        N159   1.348       .  A
C143        C155   1.455       .  S
C143        C211   1.438       .  S
Co145       N418   2.084   1_454  S
Co145       N424   2.084   1_554  S
Co145      Cl156   2.454       .  S
N146        C157   1.348       .  A
C147        C203   1.439       .  S
Co149      Cl451   2.453   1_655  S
Cl156      Co444   2.452   1_454  S
C157        C223   1.444       .  S
C160        H161   1.111       .  S
C160        C166   1.535       .  S
C160        C165   1.537       .  S
C160        C164   1.541       .  S
C162        H163   1.112       .  S
C162        C168   1.530       .  S
C162        C167   1.540       .  S
C162        C169   1.533       .  S
C164        C167   1.372       .  D
C164        C292   1.483       .  S
C165        C168   1.367       .  D
C165        C215   1.442       .  S
C166        C169   1.367       .  D
C166        C240   1.448       .  S
C167        C289   1.477       .  S
C168        C208   1.447       .  S
C169        C247   1.442       .  S
C170        H171   1.110       .  S
C170        C176   1.532       .  S
C170        C175   1.531       .  S
C170        C174   1.540       .  S
C172        H173   1.111       .  S
C172        C178   1.532       .  S
C172        C177   1.544       .  S
C172        C179   1.535       .  S
C174        C177   1.374       .  D
C174        C284   1.488       .  S
C175        C178   1.366       .  D
C175        C236   1.439       .  S
C176        C179   1.367       .  D
C176        C216   1.440       .  S
C177        C281   1.475       .  S
C178        C232   1.448       .  S
C179        C220   1.453       .  S
C180        H181   1.112       .  S
C180        C186   1.535       .  S
C180        C185   1.533       .  S
C180        C184   1.543       .  S
C182        H183   1.112       .  S
C182        C188   1.533       .  S
C182        C187   1.538       .  S
C182        C189   1.533       .  S
C184        C187   1.372       .  D
C184        C269   1.477       .  S
C185        C188   1.366       .  D
C185        C263   1.448       .  S
C186        C189   1.367       .  D
C186        C200   1.448       .  S
C187        C265   1.481       .  S
C188        C256   1.442       .  S
C189        C207   1.442       .  S
C190        H191   1.112       .  S
C190        C196   1.530       .  S
C190        C195   1.529       .  S
C190        C194   1.540       .  S
C192        H193   1.111       .  S
C192        C198   1.536       .  S
C192        C197   1.544       .  S
C192        C199   1.531       .  S
C194        C197   1.375       .  D
C194        C277   1.480       .  S
C195        C198   1.366       .  D
C195        C231   1.445       .  S
C196        C199   1.366       .  D
C196        C251   1.438       .  S
C197        C273   1.485       .  S
C198        C224   1.445       .  S
C199        C252   1.444       .  S
C200        C201   1.207       .  T
C201        C202   1.415       .  S
C202        C203   1.208       .  T
C204        C205   1.204       .  T
C205        C206   1.409       .  S
C206        C207   1.204       .  T
C208        C209   1.207       .  T
C209        C210   1.414       .  S
C210        C211   1.207       .  T
C212        C213   1.204       .  T
C213        C214   1.409       .  S
C214        C215   1.204       .  T
C216        C217   1.202       .  T
C217        C218   1.407       .  S
C218        C219   1.203       .  T
C220        C221   1.210       .  T
C221        C222   1.419       .  S
C222        C223   1.210       .  T
C224        C225   1.205       .  T
C225        C226   1.412       .  S
C226        C227   1.206       .  T
C228        C229   1.205       .  T
C229        C230   1.411       .  S
C230        C231   1.205       .  T
C232        C233   1.207       .  T
C233        C234   1.414       .  S
C234        C235   1.207       .  T
C236        C237   1.201       .  T
C237        C238   1.405       .  S
C238        C239   1.202       .  T
C240        C241   1.207       .  T
C241        C242   1.415       .  S
C242        C243   1.208       .  T
C244        C245   1.203       .  T
C245        C246   1.408       .  S
C246        C247   1.203       .  T
C248        C249   1.202       .  T
C249        C250   1.405       .  S
C250        C251   1.201       .  T
C252        C253   1.205       .  T
C253        C254   1.411       .  S
C254        C255   1.205       .  T
C256        C257   1.203       .  T
C257        C258   1.409       .  S
C258        C259   1.204       .  T
C260        C261   1.207       .  T
C261        C262   1.414       .  S
C262        C263   1.207       .  T
C264        C265   1.341       .  D
C264        H266   1.087       .  S
C265        H267   1.086       .  S
C268        C269   1.338       .  D
C268        H270   1.087       .  S
C269        H271   1.086       .  S
C272        C273   1.339       .  D
C272        H274   1.086       .  S
C273        H275   1.086       .  S
C276        C277   1.342       .  D
C276        H278   1.087       .  S
C277        H279   1.086       .  S
C280        C281   1.336       .  D
C280        H282   1.087       .  S
C281        H283   1.087       .  S
C284        C285   1.341       .  D
C284        H286   1.087       .  S
C285        H287   1.086       .  S
C288        C289   1.337       .  D
C288        H290   1.087       .  S
C289        H291   1.087       .  S
C292        C293   1.339       .  D
C292        H294   1.087       .  S
C293        H295   1.087       .  S
C296        N314   1.350       .  A
C296        C333   1.460       .  S
C296        C563   1.472       .  S
N297        N314   1.325       .  A
N297        N319   1.320       .  A
C298        N323   1.345       .  A
C298        C336   1.464       .  S
C298        H343   1.081       .  S
H299        C340   1.082       .  S
C300        N324   1.342       .  A
C300        C304   1.458       .  S
C300        H329   1.081       .  S
Co301       N319   2.081       .  S
Co301       N309   2.098       .  S
Co301      Cl345   2.448       .  S
N302        C340   1.335       .  A
N302        N309   1.319       .  A
N302       Co303   2.067       .  S
Co303       N306   2.084       .  S
Co303      Cl345   2.448       .  S
C304        N342   1.348       .  A
C304        C580   1.468       .  S
N305        N312   1.320       .  A
N305        N335   1.325       .  A
N306        N324   1.320       .  A
N306        N342   1.324       .  A
N307        C336   1.346       .  A
N307        N317   1.323       .  A
H308        C333   1.082       .  S
N309        N330   1.328       .  A
N310        N328   1.320       .  A
N310        N315   1.322       .  A
C311        N315   1.345       .  A
C311        C339   1.466       .  S
C311        C575   1.470       .  S
N312        C327   1.340       .  A
C313        N341   1.347       .  A
C313        C316   1.464       .  S
C313        H347   1.081       .  S
C316        N337   1.344       .  A
C316        C559   1.469       .  S
N317        N323   1.320       .  A
N318        C344   1.338       .  A
N318        N320   1.319       .  A
N318       Co334   2.076   1_556  S
N319        C333   1.341       .  A
N320        N348   1.325       .  A
N320       Co338   2.084       .  S
H321        C344   1.082       .  S
H322        C339   1.082       .  S
N325        N337   1.322       .  A
N325        N341   1.320       .  A
N325       Co334   2.070   1_556  S
C326        N330   1.355       .  A
C326        C340   1.448       .  S
C326        C588   1.466       .  S
C327        C346   1.458       .  S
C327        H331   1.082       .  S
N328        C339   1.345       .  A
N328       Co338   2.093       .  S
C332        N348   1.351       .  A
C332        C344   1.451       .  S
C332        C567   1.464       .  S
N335        C346   1.348       .  A
C336        C583   1.472       .  S
C346        C571   1.467       .  S
C349        N367   1.346       .  A
C349        C386   1.454       .  S
C349        C543   1.435       .  S
N350        N367   1.325       .  A
N350        N372   1.321       .  A
N350       Co387   2.084   1_565  S
C351        N376   1.342       .  A
C351        C389   1.455       .  S
C351        H396   1.081       .  S
H352        C393   1.081       .  S
C353        N377   1.342       .  A
C353        C357   1.455       .  S
C353        H382   1.082       .  S
Co354       N372   2.086       .  S
Co354       N362   2.092       .  S
Co354       N394   2.088   1_565  S
Co354       N370   2.091   1_565  S
Co354      Cl398   2.452       .  S
N355        C393   1.343       .  A
N355        N362   1.321       .  A
N355       Co356   2.086       .  S
Co356       N376   2.086   1_565  S
Co356      Cl398   2.453       .  S
C357        N395   1.346       .  A
C357        C554   1.435       .  S
N358        N365   1.320       .  A
N358        N388   1.325       .  A
N358       Co391   2.086       .  S
N359        N377   1.322       .  A
N359        N395   1.325       .  A
N360        C389   1.348       .  A
N360        N370   1.326       .  A
H361        C386   1.082       .  S
N362        N383   1.326       .  A
N363        N381   1.321       .  A
N363        N368   1.326       .  A
C364        N368   1.348       .  A
C364        C392   1.452       .  S
C364        C539   1.435       .  S
N365        C380   1.342       .  A
C366        N394   1.341       .  A
C366        C369   1.455       .  S
C366        H400   1.081       .  S
C369        N390   1.345       .  A
C369        C534   1.434       .  S
N370        N376   1.321       .  A
N371        C397   1.341       .  A
N371        N373   1.320       .  A
N372        C386   1.342       .  A
N373        N401   1.326       .  A
N373       Co391   2.093   1_545  S
H374        C397   1.081       .  S
H375        C392   1.082       .  S
N377       Co391   2.088       .  S
N378        N390   1.324       .  A
N378        N394   1.321       .  A
N378       Co387   2.078       .  S
C379        N383   1.349       .  A
C379        C393   1.455       .  S
C379        C555   1.440       .  S
C380        C399   1.454       .  S
C380        H384   1.081       .  S
N381        C392   1.340       .  A
N381       Co391   2.079   1_545  S
C385        N401   1.349       .  A
C385        C397   1.453       .  S
C385        C530   1.439       .  S
Co387      Cl398   2.452   1_545  S
N388        C399   1.347       .  A
C389        C538   1.439       .  S
C399        C550   1.436       .  S
C402        N420   1.348       .  A
C402        C439   1.454       .  S
C402        C514   1.436       .  S
N403        N420   1.325       .  A
N403        N425   1.321       .  A
N403       Co440   2.088   1_655  S
C404        N429   1.341       .  A
C404        C442   1.453       .  S
C404        H449   1.081       .  S
H405        C446   1.081       .  S
C406        N430   1.340       .  A
C406        C410   1.453       .  S
C406        H435   1.082       .  S
Co407       N425   2.084   1_455  S
Co407       N415   2.083   1_455  S
Co407       N447   2.079       .  S
Co407       N423   2.088       .  S
Co407      Cl451   2.453       .  S
N408        C446   1.340       .  A
N408        N415   1.321       .  A
N408       Co409   2.081   1_655  S
Co409       N429   2.084       .  S
Co409      Cl451   2.454       .  S
C410        N448   1.347       .  A
C410        C522   1.434       .  S
N411        N418   1.321       .  A
N411        N441   1.326       .  A
N411       Co444   2.089       .  S
N412        N430   1.321       .  A
N412        N448   1.325       .  A
N413        C442   1.348       .  A
N413        N423   1.325       .  A
H414        C439   1.082       .  S
N415        N436   1.325       .  A
N416        N434   1.321       .  A
N416        N421   1.325       .  A
C417        N421   1.348       .  A
C417        C445   1.453       .  S
C417        C499   1.435       .  S
N418        C433   1.342       .  A
C419        N447   1.340       .  A
C419        C422   1.452       .  S
C419        H453   1.082       .  S
C422        N443   1.349       .  A
C422        C507   1.436       .  S
N423        N429   1.321       .  A
N424        C450   1.341       .  A
N424        N426   1.321       .  A
N425        C439   1.341       .  A
N426        N454   1.325       .  A
N426       Co444   2.086   1_455  S
H427        C450   1.081       .  S
H428        C445   1.082       .  S
N430       Co444   2.081       .  S
N431        N443   1.327       .  A
N431        N447   1.321       .  A
N431       Co440   2.095       .  S
C432        N436   1.347       .  A
C432        C446   1.452       .  S
C432        C523   1.433       .  S
C433        C452   1.454       .  S
C433        H437   1.081       .  S
N434        C445   1.341       .  A
N434       Co444   2.084   1_455  S
C438        N454   1.348       .  A
C438        C450   1.454       .  S
C438        C506   1.437       .  S
Co440      Cl451   2.455       .  S
N441        C452   1.348       .  A
C442        C498   1.435       .  S
C452        C518   1.437       .  S
C455        H456   1.111       .  S
C455        C461   1.532       .  S
C455        C460   1.532       .  S
C455        C459   1.543       .  S
C457        H458   1.111       .  S
C457        C463   1.535       .  S
C457        C462   1.543       .  S
C457        C464   1.536       .  S
C459        C462   1.374       .  D
C459        C587   1.482       .  S
C460        C463   1.366       .  D
C460        C510   1.446       .  S
C461        C464   1.367       .  D
C461        C535   1.448       .  S
C462        C584   1.485       .  S
C463        C503   1.446       .  S
C464        C542   1.445       .  S
C465        H466   1.112       .  S
C465        C471   1.533       .  S
C465        C470   1.532       .  S
C465        C469   1.537       .  S
C467        H468   1.112       .  S
C467        C473   1.536       .  S
C467        C472   1.544       .  S
C467        C474   1.535       .  S
C469        C472   1.372       .  D
C469        C579   1.478       .  S
C470        C473   1.367       .  D
C470        C531   1.443       .  S
C471        C474   1.368       .  D
C471        C511   1.445       .  S
C472        C576   1.481       .  S
C473        C527   1.449       .  S
C474        C515   1.446       .  S
C475        H476   1.112       .  S
C475        C481   1.535       .  S
C475        C480   1.534       .  S
C475        C479   1.543       .  S
C477        H478   1.111       .  S
C477        C483   1.534       .  S
C477        C482   1.542       .  S
C477        C484   1.530       .  S
C479        C482   1.376       .  D
C479        C564   1.481       .  S
C480        C483   1.367       .  D
C480        C558   1.449       .  S
C481        C484   1.366       .  D
C481        C495   1.444       .  S
C482        C560   1.485       .  S
C483        C551   1.444       .  S
C484        C502   1.445       .  S
C485        H486   1.111       .  S
C485        C491   1.536       .  S
C485        C490   1.532       .  S
C485        C489   1.539       .  S
C487        H488   1.112       .  S
C487        C493   1.532       .  S
C487        C492   1.538       .  S
C487        C494   1.530       .  S
C489        C492   1.370       .  D
C489        C572   1.477       .  S
C490        C493   1.366       .  D
C490        C526   1.443       .  S
C491        C494   1.368       .  D
C491        C546   1.443       .  S
C492        C568   1.474       .  S
C493        C519   1.444       .  S
C494        C547   1.445       .  S
C495        C496   1.205       .  T
C496        C497   1.411       .  S
C497        C498   1.205       .  T
C499        C500   1.205       .  T
C500        C501   1.411       .  S
C501        C502   1.205       .  T
C503        C504   1.206       .  T
C504        C505   1.413       .  S
C505        C506   1.206       .  T
C507        C508   1.206       .  T
C508        C509   1.412       .  S
C509        C510   1.206       .  T
C511        C512   1.205       .  T
C512        C513   1.412       .  S
C513        C514   1.206       .  T
C515        C516   1.206       .  T
C516        C517   1.413       .  S
C517        C518   1.206       .  T
C519        C520   1.205       .  T
C520        C521   1.410       .  S
C521        C522   1.205       .  T
C523        C524   1.204       .  T
C524        C525   1.409       .  S
C525        C526   1.204       .  T
C527        C528   1.208       .  T
C528        C529   1.415       .  S
C529        C530   1.207       .  T
C531        C532   1.204       .  T
C532        C533   1.410       .  S
C533        C534   1.204       .  T
C535        C536   1.207       .  T
C536        C537   1.415       .  S
C537        C538   1.208       .  T
C539        C540   1.205       .  T
C540        C541   1.411       .  S
C541        C542   1.205       .  T
C543        C544   1.205       .  T
C544        C545   1.411       .  S
C545        C546   1.205       .  T
C547        C548   1.205       .  T
C548        C549   1.412       .  S
C549        C550   1.206       .  T
C551        C552   1.205       .  T
C552        C553   1.411       .  S
C553        C554   1.205       .  T
C555        C556   1.208       .  T
C556        C557   1.416       .  S
C557        C558   1.208       .  T
C559        C560   1.342       .  D
C559        H561   1.086       .  S
C560        H562   1.086       .  S
C563        C564   1.342       .  D
C563        H565   1.087       .  S
C564        H566   1.086       .  S
C567        C568   1.336       .  D
C567        H569   1.087       .  S
C568        H570   1.087       .  S
C571        C572   1.338       .  D
C571        H573   1.087       .  S
C572        H574   1.087       .  S
C575        C576   1.338       .  D
C575        H577   1.087       .  S
C576        H578   1.086       .  S
C579        C580   1.341       .  D
C579        H581   1.086       .  S
C580        H582   1.087       .  S
C583        C584   1.340       .  D
C583        H585   1.087       .  S
C584        H586   1.087       .  S
C587        C588   1.338       .  D
C587        H589   1.086       .  S
C588        H590   1.086       .  S
