geometry optimzed in LAMMPS
_audit_creation_date              2020-11-30 
_audit_creation_method            'lammps2cif' 
_symmetry_space_group_name_H-M    'P1' 
_symmetry_Int_Tables_number       1 
_symmetry_cell_setting            triclinic 
loop_ 
_symmetry_equiv_pos_as_xyz 
  x,y,z 
_cell_length_a                    42.99247121 
_cell_length_b                    43.10055704046272 
_cell_length_c                    43.339003483466165 
_cell_angle_alpha                 89.84823959588542 
_cell_angle_beta                  90.10644332663726 
_cell_angle_gamma                 89.98741047191035 
loop_ 
_atom_site_label 
_atom_site_type_symbol 
_atom_site_fract_x 
_atom_site_fract_y 
_atom_site_fract_z 
_atom_site_charge 
C1          C  0.80417127  0.49745844  0.72041436     0.02500
C2          C  0.83673994  0.50190466  0.71929848     0.02500
C3          C  0.85412947  0.49657437  0.74657335    -0.18100
C4          C  0.83967851  0.48940843  0.77516220     0.02500
C5          C  0.80668693  0.48777271  0.77596930     0.02500
C6          C  0.78991950  0.49063516  0.74852853    -0.18100
H7          H  0.76470657  0.48894320  0.74931822     0.04500
H8          H  0.87925826  0.49787326  0.74535685     0.04500
C9          C  0.50515731  0.72521609  0.83590922     0.02500
C10         C  0.50438173  0.72493544  0.80323770     0.02500
C11         C  0.49708976  0.75215485  0.78741113    -0.18100
C12         C  0.48933721  0.77951051  0.80271913     0.02500
C13         C  0.48908100  0.78017432  0.83527468     0.02500
C14         C  0.49729293  0.75294693  0.85152522    -0.18100
H15         H  0.49734912  0.75327176  0.87653606     0.04500
H16         H  0.49673296  0.75186149  0.76233880     0.04500
C17         C  0.77574754  0.84085584  0.50333176     0.02500
C18         C  0.77661962  0.80830431  0.50810934     0.02500
C19         C  0.75100767  0.79344377  0.52111472    -0.18100
C20         C  0.72387082  0.80926581  0.52891566     0.02500
C21         C  0.72211092  0.84162825  0.52397421     0.02500
C22         C  0.74827681  0.85712819  0.51146390    -0.18100
H23         H  0.74725732  0.88203520  0.50809994     0.04500
H24         H  0.75166657  0.76837823  0.52388075     0.04500
Fe25       Fe  0.59376005  0.46674654  0.96124953     1.65800
Fe26       Fe  0.53907873  0.47161654  0.90681820     1.73200
Fe27       Fe  0.53840792  0.41259669  0.95629850     1.54400
O28         O  0.57820537  0.38991496  0.94927615    -0.81500
O29         O  0.49275644  0.45674008  0.91736645    -0.79800
O30         O  0.61213705  0.42171790  0.97155102    -0.84000
O31         O  0.57104508  0.46935819  0.00218548    -0.78800
O32         O  0.52591807  0.39787068  0.91057072    -0.80600
O33         O  0.53239386  0.50978733  0.93330115    -0.83400
C34         C  0.56107084  0.44619178  0.01708771     0.97400
C35         C  0.60467158  0.39510208  0.96060800     1.04900
O36         O  0.55709176  0.45030082  0.94153130    -1.12300
O37         O  0.58326125  0.48786603  0.89055920    -0.74800
O38         O  0.61779434  0.46482696  0.92138183    -0.78300
O39         O  0.55082079  0.42182425  0.00341445    -0.78900
C40         C  0.61123936  0.47969351  0.89712341     0.96300
O41         O  0.58055685  0.51355808  0.95168842    -0.76900
O42         O  0.54594077  0.43434857  0.88013673    -0.82100
C43         C  0.48049399  0.44484436  0.94162350     0.98900
C44         C  0.53555553  0.40726807  0.88405156     1.04900
O45         O  0.49705250  0.43431469  0.96336224    -0.77700
C46         C  0.55492544  0.52600088  0.94281969     1.03200
Fe47       Fe  0.53580881  0.53399772  0.58909129     1.65800
Fe48       Fe  0.54043845  0.59402387  0.54040262     1.73200
Fe49       Fe  0.59703448  0.54095609  0.54240099     1.54400
O50         O  0.61502793  0.54359110  0.58528994    -0.81500
O51         O  0.55722754  0.58447015  0.49499446    -0.79800
O52         O  0.57787163  0.51795818  0.61026552    -0.84000
O53         O  0.53379761  0.49606738  0.56145646    -0.78800
O54         O  0.61579368  0.58607430  0.53461872    -0.80600
O55         O  0.50059931  0.57174789  0.52867144    -0.83400
C56         C  0.55781998  0.48032767  0.55545652     0.97400
C57         C  0.60630076  0.52637468  0.60714752     1.04900
O58         O  0.55773392  0.55646559  0.55725748    -1.12300
O59         O  0.52258448  0.60830807  0.58412423    -0.74800
O60         O  0.53711559  0.57127255  0.61726909    -0.78300
O61         O  0.58400902  0.49353183  0.54999040    -0.78900
C62         C  0.52652351  0.59810789  0.61174611     0.96300
O63         O  0.49105962  0.54739370  0.57271341    -0.76900
O64         O  0.57899876  0.61791141  0.55168777    -0.82100
C65         C  0.56942010  0.56036681  0.48251485     0.98900
C66         C  0.60684494  0.61262732  0.54440299     1.04900
O67         O  0.58026555  0.53831702  0.49863512    -0.77700
C68         C  0.48166278  0.55980683  0.54748600     1.03200
Fe69       Fe  0.46298151  0.91476888  0.53989189     1.65800
Fe70       Fe  0.40286684  0.96418578  0.53962257     1.73200
Fe71       Fe  0.45613046  0.96835371  0.59518204     1.54400
O72         O  0.45096278  0.92800832  0.61742307    -0.81500
O73         O  0.41249134  0.01090310  0.55331634    -0.79800
O74         O  0.47405142  0.89597571  0.58420256    -0.84000
O75         O  0.50297767  0.94015145  0.53757642    -0.78800
O76         O  0.41092527  0.98002537  0.61173955    -0.80600
O77         O  0.42474135  0.97227248  0.49889583    -0.83400
C78         C  0.51770933  0.94798943  0.56155417     0.97400
C79         C  0.46243174  0.90193410  0.61082206     1.04900
O80         O  0.44086428  0.94921450  0.55782086    -1.12300
O81         O  0.38755295  0.91938136  0.52547226    -0.74800
O82         O  0.42491030  0.88769520  0.54188290    -0.78300
O83         O  0.50345765  0.95717506  0.58576274    -0.78900
C84         C  0.39733164  0.89237331  0.53315085     0.96300
O85         O  0.45231656  0.92877006  0.49390702    -0.76900
O86         O  0.37975345  0.95562478  0.57912161    -0.82100
C87         C  0.43677577  0.02475106  0.56376758     0.98900
C88         C  0.38450944  0.96812521  0.60494304     1.04900
O89         O  0.46045475  0.00982042  0.57294942    -0.77700
C90         C  0.43893979  0.95271633  0.48227126     1.03200
C91         C  0.50235861  0.28398335  0.69357352     0.02500
C92         C  0.50137170  0.28240022  0.66100509     0.02500
C93         C  0.49080659  0.25461571  0.64707904    -0.18100
C94         C  0.48201333  0.22849966  0.66497821     0.02500
C95         C  0.48474656  0.23036567  0.69747333     0.02500
C96         C  0.49460690  0.25795073  0.71102491    -0.18100
H97         H  0.49593648  0.25932689  0.73603149     0.04500
H98         H  0.48953074  0.25326772  0.62214098     0.04500
Fe99       Fe  0.45491189  0.04111255  0.90497536     1.65800
Fe100      Fe  0.45474829  0.09377918  0.96139229     1.73200
Fe101      Fe  0.39770375  0.04138465  0.95689287     1.54400
O102        O  0.37645909  0.05017945  0.91647131    -0.81500
O103        O  0.44097620  0.07847197  0.00626458    -0.79800
O104        O  0.41108199  0.02977573  0.88433036    -0.84000
O105        O  0.45876075  0.99916426  0.92627713    -0.78800
O106        O  0.37975208  0.08497136  0.97160357    -0.80600
O107        O  0.49530557  0.07036851  0.96684297    -0.83400
C108        C  0.43541023  0.98310054  0.93402736     0.97400
C109        C  0.38400876  0.04092305  0.88997050     1.04900
O110        O  0.43596503  0.05864550  0.94132179    -1.12300
O111        O  0.46856269  0.11448154  0.91868407    -0.74800
O112        O  0.45067724  0.08181346  0.88313103    -0.78300
O113        O  0.40987462  0.99564741  0.94280224    -0.78900
C114        C  0.45946506  0.10851192  0.89110857     0.96300
O115        O  0.50112914  0.05251901  0.91932682    -0.76900
O116        O  0.41576631  0.11844367  0.95617802    -0.82100
C117        C  0.42872534  0.05328359  0.01641021     0.98900
C118        C  0.38837619  0.11248091  0.96445240     1.04900
O119        O  0.41797812  0.03296482  0.99825928    -0.77700
C120        C  0.51268801  0.06213286  0.94486704     1.03200
C121        C  0.72100920  0.19720453  0.98053649     0.02500
C122        C  0.72049194  0.16432908  0.98108471     0.02500
C123        C  0.74822290  0.14881229  0.98977827    -0.18100
C124        C  0.77557816  0.16495620  0.99855899     0.02500
C125        C  0.77493915  0.19786797  0.99851377     0.02500
C126        C  0.74801646  0.21300050  0.98889407    -0.18100
H127        H  0.74785180  0.23823373  0.98849460     0.04500
H128        H  0.74852020  0.12367071  0.98990943     0.04500
C129        C  0.15495274  0.01084837  0.71556076     0.02500
C130        C  0.18764072  0.01377790  0.71393683     0.02500
C131        C  0.20392746  0.02614619  0.73882570    -0.18100
C132        C  0.18936226  0.03520437  0.76606059     0.02500
C133        C  0.15660184  0.03209636  0.76863283     0.02500
C134        C  0.13983161  0.02011855  0.74301337    -0.18100
H135        H  0.11475626  0.01798003  0.74443253     0.04500
H136        H  0.22914867  0.02729747  0.73747354     0.04500
C137        C  0.01018686  0.77909452  0.19260828     0.02500
C138        C  0.00819928  0.78142401  0.16018516     0.02500
C139        C  0.99931588  0.75485537  0.14312070    -0.18100
C140        C  0.99245881  0.72628698  0.15795352     0.02500
C141        C  0.99635469  0.72432191  0.19037026     0.02500
C142        C  0.00540221  0.75053148  0.20684968    -0.18100
H143        H  0.00688281  0.74913006  0.23185858     0.04500
H144        H  0.99776085  0.75643217  0.11820448     0.04500
C145        C  0.27671014  0.66377035  0.50991670     0.02500
C146        C  0.27699564  0.69639350  0.51370453     0.02500
C147        C  0.24991574  0.71326778  0.50822871    -0.18100
C148        C  0.22255765  0.69928626  0.49814810     0.02500
C149        C  0.22142313  0.66675059  0.49407165     0.02500
C150        C  0.24856836  0.64936472  0.50069120    -0.18100
H151        H  0.24775822  0.62431855  0.49878383     0.04500
H152        H  0.25054001  0.73837485  0.51051633     0.04500
C153        C  0.65954369  0.51390382  0.21488503     0.02500
C154        C  0.69209872  0.51850361  0.21399134     0.02500
C155        C  0.70769331  0.52865563  0.24033223    -0.18100
C156        C  0.69248348  0.53305178  0.26834468     0.02500
C157        C  0.65962200  0.53024440  0.26976773     0.02500
C158        C  0.64357311  0.52125085  0.24249712    -0.18100
H159        H  0.61844882  0.51961978  0.24267908     0.04500
H160        H  0.73290649  0.53041602  0.23973019     0.04500
Fe161      Fe  0.95801017  0.54412757  0.40384125     1.65800
Fe162      Fe  0.95652415  0.59866274  0.45796904     1.73200
Fe163      Fe  0.90545716  0.54019595  0.46037586     1.54400
O164        O  0.87987162  0.54252189  0.42160839    -0.81500
O165        O  0.94436950  0.58601957  0.50438978    -0.79800
O166        O  0.91454115  0.52793948  0.38640035    -0.84000
O167        O  0.96737938  0.50341467  0.42529368    -0.78800
O168        O  0.88403152  0.58364125  0.47287581    -0.80600
O169        O  0.99891253  0.57851578  0.46353299    -0.83400
C170        C  0.94759343  0.48488095  0.43649046     0.97400
C171        C  0.88645204  0.53287354  0.39498166     1.04900
O172        O  0.94000696  0.56078890  0.44080212    -1.12300
O173        O  0.96901519  0.61756932  0.41365169    -0.74800
O174        O  0.94858418  0.58354292  0.38116967    -0.78300
O175        O  0.92199485  0.49475474  0.44824383    -0.78900
C176        C  0.95932976  0.61011935  0.38661243     0.96300
O177        O  0.00367065  0.55972306  0.41595421    -0.76900
O178        O  0.91520416  0.61933619  0.45221547    -0.82100
C179        C  0.93633571  0.56019489  0.51686535     0.98900
C180        C  0.88924075  0.61144574  0.46319943     1.04900
O181        O  0.92961772  0.53689794  0.50060052    -0.77700
C182        C  0.01564748  0.56982130  0.44116902     1.03200
Fe183      Fe  0.03162892  0.90783224  0.46109558     1.65800
Fe184      Fe  0.08612298  0.96285262  0.46438005     1.73200
Fe185      Fe  0.03621570  0.96061790  0.40519732     1.54400
O186        O  0.04334874  0.91976940  0.38368821    -0.81500
O187        O  0.07314855  0.00860122  0.45081274    -0.79800
O188        O  0.01885770  0.88932637  0.41719928    -0.84000
O189        O  0.99068013  0.93123995  0.46445128    -0.78800
O190        O  0.08154805  0.97408400  0.38960948    -0.80600
O191        O  0.06040467  0.96828583  0.50341014    -0.83400
C192        C  0.97541995  0.94003568  0.44097212     0.97400
C193        C  0.02856472  0.89531444  0.38989432     1.04900
O194        O  0.05140235  0.94392931  0.44351306    -1.12300
O195        O  0.10433382  0.91883471  0.47807919    -0.74800
O196        O  0.07176585  0.88457694  0.45707423    -0.78300
O197        O  0.98902808  0.94840606  0.41588921    -0.78900
C198        C  0.09821097  0.89161721  0.46770013     0.96300
O199        O  0.04285857  0.92015256  0.50748526    -0.76900
O200        O  0.11333026  0.95842537  0.42705567    -0.82100
C201        C  0.04904088  0.01966710  0.43724660     0.98900
C202        C  0.10895232  0.96861429  0.40012358     1.04900
O203        O  0.02869744  0.00219634  0.42535473    -0.77700
C204        C  0.05153234  0.94571907  0.51976571     1.03200
Fe205      Fe  0.96491027  0.41287168  0.03700125     1.65800
Fe206      Fe  0.90667278  0.46417475  0.03455359     1.73200
Fe207      Fe  0.95914806  0.46805027  0.09090987     1.54400
O208        O  0.95397038  0.42804623  0.11437199    -0.81500
O209        O  0.91686153  0.51097368  0.04733800    -0.79800
O210        O  0.97676055  0.39523071  0.08176186    -0.84000
O211        O  0.00528341  0.43741661  0.03383701    -0.78800
O212        O  0.91390314  0.48060126  0.10676260    -0.80600
O213        O  0.92996864  0.47117050  0.99456163    -0.83400
C214        C  0.02024763  0.44730066  0.05695154     0.97400
C215        C  0.96659687  0.40221546  0.10872898     1.04900
O216        O  0.94370336  0.44835780  0.05397570    -1.12300
O217        O  0.89092731  0.41950468  0.02027606    -0.74800
O218        O  0.92584280  0.38675280  0.03979009    -0.78300
O219        O  0.00634556  0.45686130  0.08122817    -0.78900
C220        C  0.89922281  0.39219228  0.02865000     0.96300
O221        O  0.95436425  0.42584798  0.99041098    -0.76900
O222        O  0.88235509  0.45714371  0.07366343    -0.82100
C223        C  0.94146276  0.52439277  0.05749435     0.98900
C224        C  0.88701863  0.47019952  0.09927314     1.04900
O225        O  0.96427237  0.50905617  0.06799370    -0.77700
C226        C  0.94280248  0.45052036  0.97826987     1.03200
C227        C  0.33771295  0.98835129  0.27809782     0.02500
C228        C  0.30484706  0.98586746  0.27919647     0.02500
C229        C  0.28738641  0.99335322  0.25313835    -0.18100
C230        C  0.30072540  0.00477461  0.22612221     0.02500
C231        C  0.33357111  0.00659346  0.22384781     0.02500
C232        C  0.35147040  0.99816593  0.25006040    -0.18100
H233        H  0.37659842  0.99953227  0.24867200     0.04500
H234        H  0.26217243  0.99185694  0.25451444     0.04500
Fe235      Fe  0.03377935  0.03835471  0.08934842     1.65800
Fe236      Fe  0.03821012  0.09716562  0.03898736     1.73200
Fe237      Fe  0.09664471  0.04665528  0.04523338     1.54400
O238        O  0.11219726  0.05242853  0.08862053    -0.81500
O239        O  0.05688693  0.08627439  0.99457508    -0.79800
O240        O  0.07556870  0.02556037  0.11315058    -0.84000
O241        O  0.03471736  0.99960786  0.06265189    -0.78800
O242        O  0.11399001  0.09192629  0.03580972    -0.80600
O243        O  0.99934391  0.07322662  0.02706804    -0.83400
C244        C  0.05991327  0.98495534  0.05927836     0.97400
C245        C  0.10283540  0.03757287  0.11192857     1.04900
O246        O  0.05610580  0.06091299  0.05777862    -1.12300
O247        O  0.01893430  0.11243849  0.08173891    -0.74800
O248        O  0.03232290  0.07621376  0.11630836    -0.78300
O249        O  0.08566974  0.99925569  0.05482651    -0.78900
C250        C  0.02207558  0.10289528  0.10969444     0.96300
O251        O  0.98914928  0.04980393  0.07141096    -0.76900
O252        O  0.07558287  0.12295103  0.05032466    -0.82100
C253        C  0.07120439  0.06257455  0.98357480     0.98900
C254        C  0.10380894  0.11858991  0.04387324     1.04900
O255        O  0.08181285  0.04139509  0.00103859    -0.77700
C256        C  0.98005458  0.06216492  0.04609352     1.03200
C257        C  0.00269930  0.28228664  0.33493212     0.02500
C258        C  0.00442440  0.28235393  0.30226447     0.02500
C259        C  0.01407287  0.25564482  0.28680742    -0.18100
C260        C  0.02014666  0.22783237  0.30217361     0.02500
C261        C  0.01855679  0.22695188  0.33480069     0.02500
C262        C  0.01029362  0.25445549  0.35062534    -0.18100
H263        H  0.00881469  0.25389454  0.37557236     0.04500
H264        H  0.01466366  0.25590880  0.26173183     0.04500
C265        C  0.28000033  0.31089748  0.00812868     0.02500
C266        C  0.28026080  0.34339543  0.00301644     0.02500
C267        C  0.25288510  0.36039442  0.00984852    -0.18100
C268        C  0.22550244  0.34551939  0.02033058     0.02500
C269        C  0.22573215  0.31297923  0.02409613     0.02500
C270        C  0.25298611  0.29654317  0.01865543    -0.18100
H271        H  0.25266896  0.27144450  0.02120722     0.04500
H272        H  0.25276718  0.38535532  0.00676442     0.04500
C273        C  0.16610852  0.25172871  0.01176204    -0.27400
C274        C  0.16739063  0.23646672  0.04033039     0.02200
C275        C  0.18244703  0.25095694  0.06532174     0.30300
C276        C  0.19775266  0.27935468  0.06089109    -0.19200
C277        C  0.19847951  0.29351166  0.03166906    -0.28600
C278        C  0.18172863  0.27985424  0.00723430     0.44300
C279        C  0.15358421  0.20509617  0.04341630     0.05500
O280        O  0.18503710  0.23601252  0.09320125    -0.57100
H281        H  0.21174106  0.28872598  0.07949161     0.18400
O282        O  0.18313300  0.29217013  0.97805676    -0.63800
H283        H  0.15429566  0.24097154  0.99244503     0.16900
C284        C  0.12879135  0.19995317  0.06376706     0.29100
C285        C  0.11450704  0.17092660  0.06494613    -0.24700
C286        C  0.12399308  0.14650503  0.04551818    -0.24000
C287        C  0.14962698  0.15125802  0.02587425     0.40600
C288        C  0.16422110  0.18046716  0.02491107    -0.26500
O289        O  0.11743742  0.22355833  0.08168918    -0.58400
H290        H  0.09495248  0.16792467  0.08042143     0.16200
O291        O  0.15977196  0.12811874  0.00670996    -0.59800
H292        H  0.18344711  0.18414614  0.00919275     0.14700
H293        H  0.20104365  0.28179122  0.96803368     0.46500
H294        H  0.10136777  0.23390036  0.06882911     0.41900
H295        H  0.14792267  0.13097582  0.98725123     0.45400
H296        H  0.17125876  0.24757667  0.10744638     0.36800
C297        C  0.04597272  0.18010906  0.23484906    -0.27400
C298        C  0.01736885  0.16746975  0.22546299     0.02200
C299        C  0.99177971  0.16934065  0.24577595     0.30300
C300        C  0.99460970  0.18524561  0.27384353    -0.19200
C301        C  0.02239621  0.20037857  0.28175350    -0.28600
C302        C  0.04839119  0.19709837  0.26225839     0.44300
C303        C  0.01443945  0.15316647  0.19424844     0.05500
O304        O  0.96326160  0.15776119  0.23747319    -0.57100
H305        H  0.97406577  0.18856242  0.28791367     0.18400
O306        O  0.07561846  0.21237929  0.26870272    -0.63800
H307        H  0.06618158  0.17821688  0.22007943     0.16900
C308        C  0.02601891  0.16812712  0.16748908     0.29100
C309        C  0.02599455  0.15273015  0.13893672    -0.24700
C310        C  0.01420933  0.12252641  0.13652399    -0.24000
C311        C  0.00045594  0.10861991  0.16271848     0.40600
C312        C  0.00077560  0.12381900  0.19118449    -0.26500
O313        O  0.03833632  0.19742180  0.16914814    -0.58400
H314        H  0.03686421  0.16366918  0.11916767     0.16200
O315        O  0.98732759  0.07963902  0.16079955    -0.59800
H316        H  0.99153212  0.11191020  0.21120505     0.14700
H317        H  0.07464306  0.23193583  0.25662632     0.46500
H318        H  0.02015419  0.21158281  0.16897499     0.41900
H319        H  0.00232573  0.06540068  0.17097707     0.45400
H320        H  0.95329868  0.17443319  0.22511104     0.36800
C321        C  0.17434074  0.05478224  0.15724304    -0.27400
C322        C  0.18530616  0.02490063  0.16428381     0.02200
C323        C  0.16503809  0.99937716  0.15987449     0.30300
C324        C  0.13570995  0.00389250  0.14589295    -0.19200
C325        C  0.12624183  0.03363109  0.13657625    -0.28600
C326        C  0.14511232  0.05925908  0.14402821     0.44300
C327        C  0.21766605  0.02156486  0.17660294     0.05500
O328        O  0.17350124  0.97018254  0.16947482    -0.57100
H329        H  0.12138730  0.98395402  0.14052024     0.18400
O330        O  0.13623493  0.08878243  0.13597843    -0.63800
H331        H  0.18905831  0.07486862  0.16075021     0.16900
C332        C  0.23886146  0.99911236  0.16542715     0.29100
C333        C  0.26839234  0.99588174  0.17911986    -0.24700
C334        C  0.27770612  0.01567269  0.20304657    -0.24000
C335        C  0.25780830  0.04010248  0.21182703     0.40600
C336        C  0.22802893  0.04246747  0.19919682    -0.26500
O337        O  0.23082756  0.97976253  0.14167460    -0.58400
H338        H  0.28319378  0.97670771  0.17242885     0.16200
O339        O  0.26592603  0.05939330  0.23567030    -0.59800
H340        H  0.21251720  0.06009464  0.20811527     0.14700
H341        H  0.12234422  0.09572072  0.15285023     0.46500
H342        H  0.23486922  0.99186860  0.12261355     0.41900
H343        H  0.27260782  0.07900886  0.22569595     0.45400
H344        H  0.17399980  0.95722598  0.15059290     0.36800
C345        C  0.10038023  0.43519764  0.02391469    -0.27400
C346        C  0.11467516  0.41798161  0.04757765     0.02200
C347        C  0.09991820  0.41655415  0.07666620     0.30300
C348        C  0.07026323  0.42976809  0.08072324    -0.19200
C349        C  0.05460907  0.44390225  0.05589436    -0.28600
C350        C  0.07052088  0.44763962  0.02770972     0.44300
C351        C  0.14334960  0.39959388  0.04063532     0.05500
O352        O  0.11322138  0.40050610  0.10066431    -0.57100
H353        H  0.05841262  0.42650331  0.10252370     0.18400
O354        O  0.05652034  0.46250010  0.00331760    -0.63800
H355        H  0.11173649  0.43762723  0.00174244     0.16900
C356        C  0.14450142  0.38003997  0.01450559     0.29100
C357        C  0.17143404  0.36302230  0.00790676    -0.24700
C358        C  0.19739579  0.36426829  0.02742759    -0.24000
C359        C  0.19641719  0.38361010  0.05355009     0.40600
C360        C  0.16958867  0.40106953  0.06002025    -0.26500
O361        O  0.11920847  0.37701410  0.99540956    -0.58400
H362        H  0.17199021  0.34883755  0.98738725     0.16200
O363        O  0.22134676  0.38503287  0.07327690    -0.59800
H364        H  0.16939082  0.41594835  0.08011633     0.14700
H365        H  0.05003280  0.44579162  0.98898109     0.46500
H366        H  0.10704749  0.35952303  0.00411911     0.41900
H367        H  0.23412844  0.40260789  0.06569344     0.45400
H368        H  0.10601596  0.37879191  0.09821681     0.36800
C369        C  0.01000871  0.34517965  0.24267207    -0.27400
C370        C  0.98307056  0.33889051  0.22528915     0.02200
C371        C  0.96084887  0.31807197  0.23720863     0.30300
C372        C  0.96635467  0.30296158  0.26527422    -0.19200
C373        C  0.99405945  0.30778900  0.28174505    -0.28600
C374        C  0.01559163  0.32973265  0.27072825     0.44300
C375        C  0.97848566  0.35337265  0.19441421     0.05500
O376        O  0.93532036  0.30986532  0.21998976    -0.57100
H377        H  0.95026713  0.28510941  0.27276404     0.18400
O378        O  0.04345859  0.33393310  0.28558355    -0.63800
H379        H  0.02725515  0.36123771  0.23388646     0.16900
C380        C  0.95124294  0.37021295  0.18793364     0.29100
C381        C  0.94681459  0.38336705  0.15883547    -0.24700
C382        C  0.96970325  0.38123854  0.13575155    -0.24000
C383        C  0.99687166  0.36402662  0.14191552     0.40600
C384        C  0.00105880  0.35011342  0.17109906    -0.26500
O385        O  0.92921833  0.37497208  0.21029551    -0.58400
H386        H  0.92582018  0.39672589  0.15479796     0.16200
O387        O  0.01991675  0.36176079  0.12020748    -0.59800
H388        H  0.02213476  0.33709866  0.17568270     0.14700
H389        H  0.03853548  0.34685687  0.30383473     0.46500
H390        H  0.93521912  0.39470073  0.22041480     0.41900
H391        H  0.03509696  0.37820559  0.12558429     0.45400
H392        H  0.91704135  0.31732988  0.23176767     0.36800
C393        C  0.06517610  0.10493250  0.41964728    -0.27400
C394        C  0.03655127  0.11385009  0.40640852     0.02200
C395        C  0.01155507  0.09278592  0.40730946     0.30300
C396        C  0.01550350  0.06349016  0.42054249    -0.19200
C397        C  0.04454658  0.05359415  0.43202010    -0.28600
C398        C  0.06936485  0.07501726  0.43220344     0.44300
C399        C  0.03326151  0.14405051  0.38975141     0.05500
O400        O  0.98409080  0.09935065  0.39241796    -0.57100
H401        H  0.99595379  0.04764279  0.41977972     0.18400
O402        O  0.09812260  0.06660659  0.44311594    -0.63800
H403        H  0.08467355  0.12084400  0.41927691     0.16900
C404        C  0.00752946  0.16366904  0.39493518     0.29100
C405        C  0.00271731  0.18978564  0.37629681    -0.24700
C406        C  0.02400562  0.19800032  0.35310451    -0.24000
C407        C  0.05095037  0.17963996  0.34941702     0.40600
C408        C  0.05508880  0.15265530  0.36719120    -0.26500
O409        O  0.98688583  0.15763356  0.41827641    -0.58400
H410        H  0.98221946  0.20386274  0.38017487     0.16200
O411        O  0.07376885  0.18813041  0.32907567    -0.59800
H412        H  0.07532880  0.13826520  0.36312933     0.14700
H413        H  0.10959844  0.05888041  0.42484649     0.46500
H414        H  0.99718475  0.16520573  0.43731313     0.41900
H415        H  0.08727185  0.20269642  0.34064622     0.45400
H416        H  0.96790947  0.09960479  0.40870723     0.36800
C417        C  0.24758439  0.00332458  0.34088440    -0.27400
C418        C  0.22829554  0.97706660  0.33867391     0.02200
C419        C  0.23907686  0.95102514  0.32234030     0.30300
C420        C  0.26750555  0.95234874  0.30666568    -0.19200
C421        C  0.28569760  0.97947684  0.30685923    -0.28600
C422        C  0.27597647  0.00470251  0.32502586     0.44300
C423        C  0.19701883  0.97715143  0.35338590     0.05500
O424        O  0.22124625  0.92474387  0.32017834    -0.57100
H425        H  0.27395132  0.93319179  0.29184281     0.18400
O426        O  0.29250165  0.03193536  0.32482391    -0.63800
H427        H  0.23974106  0.02357760  0.35340687     0.16900
C428        C  0.19419036  0.98301036  0.38506867     0.29100
C429        C  0.16504175  0.98174934  0.39912015    -0.24700
C430        C  0.13788576  0.97460683  0.38224688    -0.24000
C431        C  0.14039884  0.97005913  0.35020297     0.40600
C432        C  0.16988152  0.97115071  0.33600330    -0.26500
O433        O  0.22010683  0.98794413  0.40293163    -0.58400
H434        H  0.16388938  0.98552316  0.42380777     0.16200
O435        O  0.11470466  0.96269180  0.33295191    -0.59800
H436        H  0.17163806  0.96692962  0.31143884     0.14700
H437        H  0.28314072  0.04460799  0.30806903     0.46500
H438        H  0.22011613  0.01048986  0.40744828     0.41900
H439        H  0.10626862  0.98288204  0.32578441     0.45400
H440        H  0.22672593  0.91222123  0.33862925     0.36800
C441        C  0.99086631  0.41234350  0.41241004    -0.27400
C442        C  0.96662268  0.39126195  0.40695649     0.02200
C443        C  0.93640255  0.39927454  0.41715886     0.30300
C444        C  0.93052558  0.42906526  0.42955154    -0.19200
C445        C  0.95454256  0.45105546  0.43239567    -0.28600
C446        C  0.98525411  0.44147229  0.42535893     0.44300
C447        C  0.97379707  0.36186561  0.38973029     0.05500
O448        O  0.91270452  0.37798697  0.41562133    -0.57100
H449        H  0.90688965  0.43543379  0.43539094     0.18400
O450        O  0.01004321  0.46111962  0.42933745    -0.63800
H451        H  0.01438950  0.40676752  0.40541358     0.16900
C452        C  0.95634817  0.35243176  0.36369627     0.29100
C453        C  0.96558329  0.32647205  0.34631299    -0.24700
C454        C  0.99300641  0.31009683  0.35340275    -0.24000
C455        C  0.01061681  0.31977943  0.37919350     0.40600
C456        C  0.00077388  0.34491383  0.39721590    -0.26500
O457        O  0.93082247  0.36900422  0.35425206    -0.58400
H458        H  0.95118045  0.31926345  0.32714027     0.16200
O459        O  0.03793268  0.30515844  0.38679152    -0.59800
H460        H  0.01483125  0.35165998  0.41685454     0.14700
H461        H  0.01599155  0.45889070  0.45135037     0.46500
H462        H  0.93894330  0.38460949  0.33946804     0.41900
H463        H  0.05390257  0.31468642  0.37327367     0.45400
H464        H  0.89669885  0.38728177  0.40191336     0.36800
C465        C  0.82771717  0.54117702  0.33016670    -0.27400
C466        C  0.80069178  0.52982344  0.34479658     0.02200
C467        C  0.80360790  0.51579455  0.37401390     0.30300
C468        C  0.83261414  0.51431089  0.38848857    -0.19200
C469        C  0.85928198  0.52721678  0.37476483    -0.28600
C470        C  0.85686144  0.54002496  0.34499019     0.44300
C471        C  0.76965267  0.53245564  0.32952901     0.05500
O472        O  0.77799213  0.50474505  0.38934446    -0.57100
H473        H  0.83394688  0.50454758  0.41153514     0.18400
O474        O  0.88212070  0.55367670  0.33128161    -0.63800
H475        H  0.82613758  0.55150186  0.30741270     0.16900
C476        C  0.75912454  0.56080209  0.31693852     0.29100
C477        C  0.73140188  0.56178396  0.29979031    -0.24700
C478        C  0.71345760  0.53491583  0.29547472    -0.24000
C479        C  0.72266422  0.50723310  0.31014631     0.40600
C480        C  0.75063511  0.50606074  0.32672313    -0.26500
O481        O  0.77588643  0.58756525  0.32111963    -0.58400
H482        H  0.72489459  0.58312497  0.28818750     0.16200
O483        O  0.70628224  0.48034444  0.30548986    -0.59800
H484        H  0.75826886  0.48398848  0.33604497     0.14700
H485        H  0.89218473  0.53689280  0.31929614     0.46500
H486        H  0.78509582  0.59242273  0.30070392     0.41900
H487        H  0.68890617  0.48113047  0.32048335     0.45400
H488        H  0.77079230  0.52223279  0.40233626     0.36800
C489        C  0.75695828  0.52268310  0.15677536    -0.27400
C490        C  0.76916336  0.49255337  0.15951138     0.02200
C491        C  0.75183748  0.46983350  0.17550658     0.30300
C492        C  0.72362669  0.47781809  0.18956886    -0.19200
C493        C  0.71260188  0.50839899  0.18861464    -0.28600
C494        C  0.72912418  0.53075855  0.17150108     0.44300
C495        C  0.80036303  0.48542973  0.14644489     0.05500
O496        O  0.76394311  0.44075706  0.18041045    -0.57100
H497        H  0.71194024  0.46079816  0.20389998     0.18400
O498        O  0.71931521  0.56104916  0.17090773    -0.63800
H499        H  0.76975661  0.54036266  0.14431773     0.16900
C500        C  0.80449683  0.46008945  0.12652815     0.29100
C501        C  0.83360889  0.45423944  0.11368988    -0.24700
C502        C  0.85912622  0.47400862  0.11912878    -0.24000
C503        C  0.85534136  0.49902143  0.13964365     0.40600
C504        C  0.82612967  0.50449279  0.15322766    -0.26500
O505        O  0.77989077  0.44164694  0.11820537    -0.58400
H506        H  0.83576193  0.43476892  0.09806101     0.16200
O507        O  0.87952307  0.51884892  0.14569611    -0.59800
H508        H  0.82342776  0.52404295  0.16865528     0.14700
H509        H  0.73101953  0.57149289  0.18766840     0.46500
H510        H  0.77015516  0.45226952  0.10030384     0.41900
H511        H  0.87677091  0.53638771  0.13109158     0.45400
H512        H  0.74942960  0.42620889  0.17006575     0.36800
C513        C  0.09316806  0.58383137  0.47968158    -0.27400
C514        C  0.10878850  0.60122818  0.45711474     0.02200
C515        C  0.09558767  0.60357376  0.42736325     0.30300
C516        C  0.06630302  0.59029441  0.42119369    -0.19200
C517        C  0.04968013  0.57485181  0.44454401    -0.28600
C518        C  0.06400394  0.57070452  0.47361537     0.44300
C519        C  0.13750134  0.61862126  0.46574287     0.05500
O520        O  0.11016675  0.62045315  0.40475748    -0.57100
H521        H  0.05555447  0.59422828  0.39888977     0.18400
O522        O  0.04880519  0.55542756  0.49694858    -0.63800
H523        H  0.10314407  0.58141205  0.50254342     0.16900
C524        C  0.13680773  0.64077172  0.48962276     0.29100
C525        C  0.16407421  0.65617751  0.49854442    -0.24700
C526        C  0.19248756  0.65050402  0.48361008    -0.24000
C527        C  0.19306301  0.62865233  0.45933554     0.40600
C528        C  0.16577973  0.61293201  0.45063111    -0.26500
O529        O  0.10950439  0.64750721  0.50450043    -0.58400
H530        H  0.16301694  0.67225732  0.51761107     0.16200
O531        O  0.22019641  0.62237397  0.44398091    -0.59800
H532        H  0.16677256  0.59598692  0.43224188     0.14700
H533        H  0.05149843  0.53305452  0.49238272     0.46500
H534        H  0.09907521  0.66326065  0.49135073     0.41900
H535        H  0.22195147  0.63883261  0.42804928     0.45400
H536        H  0.10293715  0.64210106  0.40767706     0.36800
C537        C  0.16093216  0.83451029  0.49267199    -0.27400
C538        C  0.15481866  0.80983463  0.47222726     0.02200
C539        C  0.13319042  0.81418652  0.44831377     0.30300
C540        C  0.11691225  0.84206004  0.44612017    -0.19200
C541        C  0.12122150  0.86601751  0.46778143    -0.28600
C542        C  0.14429261  0.86253887  0.49056362     0.44300
C543        C  0.16911099  0.77892776  0.47746382     0.05500
O544        O  0.12561842  0.79030217  0.42878731    -0.57100
H545        H  0.09953753  0.84425140  0.42809193     0.18400
O546        O  0.14970477  0.88556603  0.51166659    -0.63800
H547        H  0.17787259  0.83159196  0.51099045     0.16900
C548        C  0.18524611  0.76322047  0.45387310     0.29100
C549        C  0.19885563  0.73431382  0.45984802    -0.24700
C550        C  0.19768169  0.72120546  0.48947110    -0.24000
C551        C  0.18111477  0.73661855  0.51285838     0.40600
C552        C  0.16649316  0.76493318  0.50661084    -0.26500
O553        O  0.18959854  0.77676859  0.42553726    -0.58400
H554        H  0.21290437  0.72350579  0.44212934     0.16200
O555        O  0.18087493  0.72513159  0.54241156    -0.59800
H556        H  0.15403332  0.77658386  0.52494755     0.14700
H557        H  0.13647182  0.88030411  0.52964817     0.46500
H558        H  0.20826889  0.79006457  0.42793005     0.41900
H559        H  0.19806314  0.73597829  0.55321630     0.45400
H560        H  0.13274752  0.79698040  0.40805010     0.36800
C561        C  0.02674410  0.90474515  0.06998566    -0.27400
C562        C  0.04457800  0.89388457  0.09498101     0.02200
C563        C  0.07093452  0.91112048  0.10415169     0.30300
C564        C  0.07812903  0.93932131  0.08943638    -0.19200
C565        C  0.05894372  0.95121683  0.06595399    -0.28600
C566        C  0.03371111  0.93310389  0.05558727     0.44300
C567        C  0.03494077  0.86520431  0.11192167     0.05500
O568        O  0.08865166  0.90164763  0.12878575    -0.57100
H569        H  0.09717161  0.95318149  0.09824383     0.18400
O570        O  0.01460793  0.94382654  0.03253335    -0.63800
H571        H  0.00673803  0.89161743  0.06220554     0.16900
C572        C  0.00487908  0.86231785  0.12480296     0.29100
C573        C  0.99627393  0.83506153  0.14054595    -0.24700
C574        C  0.01732169  0.81037661  0.14377885    -0.24000
C575        C  0.04736582  0.81335498  0.13124442     0.40600
C576        C  0.05597122  0.84050787  0.11548053    -0.26500
O577        O  0.98382364  0.88611620  0.12237479    -0.58400
H578        H  0.97314390  0.83317317  0.15024845     0.16200
O579        O  0.06844256  0.78963621  0.13408042    -0.59800
H580        H  0.07910708  0.84218011  0.10575514     0.14700
H581        H  0.02506293  0.93784550  0.01305737     0.46500
H582        H  0.98843141  0.89998011  0.14002778     0.41900
H583        H  0.07970355  0.79381529  0.15362424     0.45400
H584        H  0.07867433  0.91105442  0.14713849     0.36800
C585        C  0.94711702  0.67363664  0.10290862    -0.27400
C586        C  0.96473308  0.64616104  0.10414135     0.02200
C587        C  0.99132718  0.64532357  0.12330147     0.30300
C588        C  0.00000723  0.67144152  0.14049697    -0.19200
C589        C  0.98248546  0.69887790  0.13934180    -0.28600
C590        C  0.95584862  0.69984031  0.12023701     0.44300
C591        C  0.95537783  0.61809696  0.08610635     0.05500
O592        O  0.00892285  0.61887244  0.12565771    -0.57100
H593        H  0.02071217  0.67030479  0.15469223     0.18400
O594        O  0.93806778  0.72620604  0.11849223    -0.63800
H595        H  0.92662307  0.67481752  0.08837407     0.16900
C596        C  0.92619916  0.60370628  0.09046223     0.29100
C597        C  0.92024833  0.57430616  0.07762254    -0.24700
C598        C  0.94328682  0.55863380  0.06077952    -0.24000
C599        C  0.97135071  0.57422329  0.05424772     0.40600
C600        C  0.97715252  0.60364654  0.06673397    -0.26500
O601        O  0.90423630  0.61705147  0.10911195    -0.58400
H602        H  0.89867400  0.56260852  0.08320306     0.16200
O603        O  0.99419545  0.55991645  0.03742912    -0.59800
H604        H  0.99947511  0.61453737  0.06258564     0.14700
H605        H  0.92318381  0.72458044  0.13587592     0.46500
H606        H  0.90872192  0.60903985  0.13012988     0.41900
H607        H  0.98957059  0.56525818  0.01562836     0.45400
H608        H  0.99852573  0.60612045  0.14168425     0.36800
C609        C  0.00458857  0.66711259  0.25431568    -0.27400
C610        C  0.97482843  0.66911410  0.26751878     0.02200
C611        C  0.95080911  0.68364600  0.25049124     0.30300
C612        C  0.95725895  0.69735949  0.22180976    -0.19200
C613        C  0.98755019  0.69754658  0.20991531    -0.28600
C614        C  0.01104023  0.68123156  0.22582635     0.44300
C615        C  0.96938867  0.65681214  0.29932536     0.05500
O616        O  0.92192118  0.68777200  0.26328161    -0.57100
H617        H  0.93930316  0.71098194  0.21055824     0.18400
O618        O  0.04115798  0.68221165  0.21548007    -0.63800
H619        H  0.02327872  0.65578084  0.26680090     0.16900
C620        C  0.94448843  0.63655755  0.30523837     0.29100
C621        C  0.93993391  0.62470289  0.33483815    -0.24700
C622        C  0.96093038  0.63086750  0.35910429    -0.24000
C623        C  0.98555949  0.65167173  0.35359823     0.40600
C624        C  0.98957688  0.66456968  0.32389285    -0.26500
O625        O  0.92542341  0.62661764  0.28185233    -0.58400
H626        H  0.92076846  0.60873331  0.33825843     0.16200
O627        O  0.00702781  0.65776760  0.37620171    -0.59800
H628        H  0.00895104  0.68011070  0.31984016     0.14700
H629        H  0.04508493  0.66144294  0.20650466     0.46500
H630        H  0.93586070  0.60806355  0.27319130     0.41900
H631        H  0.99942809  0.67682892  0.38649685     0.45400
H632        H  0.90725226  0.67646152  0.24965781     0.36800
C633        C  0.98770089  0.83102434  0.25712563    -0.27400
C634        C  0.01637843  0.83514756  0.27215054     0.02200
C635        C  0.04384747  0.82600310  0.25682504     0.30300
C636        C  0.04211508  0.81110896  0.22808805    -0.19200
C637        C  0.01324591  0.80556424  0.21399307    -0.28600
C638        C  0.98603354  0.81653219  0.22832865     0.44300
C639        C  0.01710147  0.84869748  0.30379960     0.05500
O640        O  0.07240028  0.83032246  0.27028328    -0.57100
H641        H  0.06312918  0.80184636  0.21786553     0.18400
O642        O  0.95739921  0.81057679  0.21559293    -0.63800
H643        H  0.96626062  0.83753156  0.26847881     0.16900
C644        C  0.00137726  0.87662920  0.31009250     0.29100
C645        C  0.00327508  0.88991470  0.33942351    -0.24700
C646        C  0.02057373  0.87585676  0.36312105    -0.24000
C647        C  0.03540025  0.84737478  0.35742380     0.40600
C648        C  0.03350261  0.83389047  0.32793020    -0.26500
O649        O  0.98620286  0.89244144  0.28702289    -0.58400
H650        H  0.99250812  0.91232977  0.34323344     0.16200
O651        O  0.05373355  0.83384952  0.37961428    -0.59800
H652        H  0.04543112  0.81217934  0.32370074     0.14700
H653        H  0.95023276  0.79104567  0.22543821     0.46500
H654        H  0.96373944  0.89037521  0.29178436     0.41900
H655        H  0.03914135  0.82232347  0.39312370     0.45400
H656        H  0.07855828  0.85175145  0.26458603     0.36800
C657        C  0.07914746  0.07815057  0.89637902    -0.27400
C658        C  0.09788247  0.05293395  0.88740783     0.02200
C659        C  0.10643044  0.03085358  0.90978540     0.30300
C660        C  0.09647929  0.03403974  0.94027795    -0.19200
C661        C  0.07801136  0.05932764  0.94978158    -0.28600
C662        C  0.06918320  0.08145055  0.92725706     0.44300
C663        C  0.10945212  0.04967893  0.85510745     0.05500
O664        O  0.12627769  0.00702419  0.90245035    -0.57100
H665        H  0.10424687  0.01674053  0.95674577     0.18400
O666        O  0.05090350  0.10628963  0.93501383    -0.63800
H667        H  0.07232437  0.09537505  0.87942347     0.16900
C668        C  0.10421838  0.02211667  0.83842127     0.29100
C669        C  0.11940223  0.01702608  0.81033288    -0.24700
C670        C  0.13956223  0.03936594  0.79778791    -0.24000
C671        C  0.14291902  0.06799190  0.81326789     0.40600
C672        C  0.12819292  0.07284081  0.84182982    -0.26500
O673        O  0.08483808  0.99957225  0.84979201    -0.58400
H674        H  0.11594234  0.99511246  0.79862570     0.16200
O675        O  0.16060510  0.09132542  0.80081878    -0.59800
H676        H  0.13214634  0.09437752  0.85405640     0.14700
H677        H  0.06560311  0.12367029  0.93847706     0.46500
H678        H  0.06364074  0.00595505  0.84332608     0.41900
H679        H  0.14667317  0.10210615  0.78601262     0.45400
H680        H  0.11368276  0.98780799  0.90403715     0.36800
C681        C  0.08533757  0.93666691  0.59973879    -0.27400
C682        C  0.08028894  0.96651310  0.61192973     0.02200
C683        C  0.06000412  0.98670254  0.59588764     0.30300
C684        C  0.04796772  0.97827068  0.56699466    -0.19200
C685        C  0.05503704  0.94940585  0.55369997    -0.28600
C686        C  0.07262601  0.92796083  0.57107138     0.44300
C687        C  0.09873414  0.97762530  0.63920358     0.05500
O688        O  0.05315710  0.01550977  0.60740915    -0.57100
H689        H  0.03452400  0.99514865  0.55404469     0.18400
O690        O  0.08063093  0.89983691  0.55869688    -0.63800
H691        H  0.10094925  0.92074555  0.61136659     0.16900
C692        C  0.10140320  0.96011746  0.66667607     0.29100
C693        C  0.11976233  0.97106458  0.69134756    -0.24700
C694        C  0.13617224  0.99917817  0.68900347    -0.24000
C695        C  0.13335095  0.01675555  0.66173915     0.40600
C696        C  0.11488011  0.00596868  0.63722951    -0.26500
O697        O  0.08513162  0.93295970  0.67011683    -0.58400
H698        H  0.12122884  0.95752299  0.71239680     0.16200
O699        O  0.14741370  0.04524718  0.65947129    -0.59800
H700        H  0.11347734  0.01979986  0.61636737     0.14700
H701        H  0.06392626  0.88540420  0.56524472     0.46500
H702        H  0.10095117  0.91623737  0.66918551     0.41900
H703        H  0.16191022  0.04366425  0.64177198     0.45400
H704        H  0.03585163  0.01205891  0.62211598     0.36800
C705        C  0.89355958  0.07985740  0.05518220    -0.27400
C706        C  0.88651477  0.09209270  0.02579159     0.02200
C707        C  0.90935901  0.09040338  0.00257329     0.30300
C708        C  0.93851458  0.07752951  0.00904558    -0.19200
C709        C  0.94641802  0.06706488  0.03885170    -0.28600
C710        C  0.92319305  0.06752899  0.06184550     0.44300
C711        C  0.85659668  0.10896143  0.02008387     0.05500
O712        O  0.90469841  0.10438290  0.97442901    -0.57100
H713        H  0.95580540  0.07783434  0.99088769     0.18400
O714        O  0.92984113  0.05847072  0.09148000    -0.63800
H715        H  0.87638928  0.08092749  0.07341042     0.16900
C716        C  0.83885528  0.10377676  0.99314588     0.29100
C717        C  0.81339531  0.12281913  0.98621312    -0.24700
C718        C  0.80387875  0.14641612  0.00644292    -0.24000
C719        C  0.82000319  0.14995114  0.03458937     0.40600
C720        C  0.84641869  0.13178213  0.04093326    -0.26500
O721        O  0.84603191  0.08001449  0.97341411    -0.58400
H722        H  0.80078493  0.11891003  0.96490288     0.16200
O723        O  0.80985282  0.17055993  0.05637208    -0.59800
H724        H  0.85918700  0.13581662  0.06211535     0.14700
H725        H  0.92327695  0.03645030  0.09269306     0.46500
H726        H  0.83674024  0.06120169  0.98285202     0.41900
H727        H  0.79471855  0.15881123  0.06908734     0.45400
H728        H  0.90571897  0.08746748  0.95898035     0.36800
C729        C  0.86325155  0.31383094  0.04473344    -0.27400
C730        C  0.84812640  0.30704763  0.01690838     0.02200
C731        C  0.84704722  0.33008390  0.99362232     0.30300
C732        C  0.86196806  0.35891364  0.99814285    -0.19200
C733        C  0.87831795  0.36492700  0.02559116    -0.28600
C734        C  0.87817200  0.34224474  0.04917286     0.44300
C735        C  0.83258382  0.27627180  0.01364633     0.05500
O736        O  0.83086678  0.32491157  0.96680873    -0.57100
H737        H  0.86181773  0.37599036  0.97975480     0.18400
O738        O  0.89335831  0.34732264  0.07657633    -0.63800
H739        H  0.86396501  0.29668234  0.06305681     0.16900
C740        C  0.83986254  0.25545805  0.98959602     0.29100
C741        C  0.82363728  0.22720749  0.98683087    -0.24700
C742        C  0.80038395  0.21911335  0.00811078    -0.24000
C743        C  0.79480884  0.23900885  0.03333363     0.40600
C744        C  0.81072315  0.26718764  0.03588115    -0.26500
O745        O  0.86205756  0.26289391  0.96815266    -0.58400
H746        H  0.82763735  0.21269364  0.96685589     0.16200
O747        O  0.77110772  0.23271019  0.05358014    -0.59800
H748        H  0.80493533  0.28269102  0.05466255     0.14700
H749        H  0.87858550  0.35945963  0.08929611     0.46500
H750        H  0.88211666  0.25675872  0.97771119     0.41900
H751        H  0.78144626  0.22508221  0.07260509     0.45400
H752        H  0.84690779  0.32238208  0.95059162     0.36800
C753        C  0.41121710  0.06489097  0.10207719    -0.27400
C754        C  0.40008187  0.03518548  0.11012406     0.02200
C755        C  0.40206307  0.01126809  0.08813467     0.30300
C756        C  0.41432872  0.01725598  0.05890207    -0.19200
C757        C  0.42390044  0.04722871  0.05003019    -0.28600
C758        C  0.42305475  0.07102133  0.07234465     0.44300
C759        C  0.38465076  0.02945164  0.14052748     0.05500
O760        O  0.38914407  0.98268657  0.09386573    -0.57100
H761        H  0.41443933  0.99841137  0.04240163     0.18400
O762        O  0.43158298  0.10073667  0.06484346    -0.63800
H763        H  0.40991941  0.08363073  0.11863104     0.16900
C764        C  0.39228016  0.00326904  0.15861300     0.29100
C765        C  0.37477525  0.99592275  0.18480019    -0.24700
C766        C  0.35035818  0.01512442  0.19479590    -0.24000
C767        C  0.34428998  0.04267153  0.17809861     0.40600
C768        C  0.36090206  0.04929124  0.15092834    -0.26500
O769        O  0.41696724  0.98465552  0.15101172    -0.58400
H770        H  0.38056229  0.97506086  0.19758567     0.16200
O771        O  0.32279056  0.06369071  0.18835509    -0.59800
H772        H  0.35500394  0.06989960  0.13780367     0.14700
H773        H  0.45415324  0.10185633  0.06945898     0.46500
H774        H  0.43548076  0.99505170  0.15992124     0.41900
H775        H  0.33386053  0.07627020  0.20403927     0.45400
H776        H  0.40660079  0.96765640  0.09296667     0.36800
C777        C  0.32039753  0.02017487  0.83287265    -0.27400
C778        C  0.30142085  0.04678559  0.83500235     0.02200
C779        C  0.31241379  0.07255033  0.85156651     0.30300
C780        C  0.34097115  0.07090308  0.86696373    -0.19200
C781        C  0.35925796  0.04382130  0.86631008    -0.28600
C782        C  0.34927809  0.01865631  0.84822823     0.44300
C783        C  0.26974052  0.04714250  0.82099903     0.05500
O784        O  0.29412835  0.09840028  0.85515462    -0.57100
H785        H  0.34807020  0.09041833  0.88106172     0.18400
O786        O  0.36608022  0.99163742  0.84758943    -0.63800
H787        H  0.31235816  0.00021441  0.81998222     0.16900
C788        C  0.26119544  0.06991177  0.79919023     0.29100
C789        C  0.23196547  0.06868974  0.78496552    -0.24700
C790        C  0.21117704  0.04423809  0.79112331    -0.24000
C791        C  0.21879490  0.02274823  0.81445025     0.40600
C792        C  0.24791083  0.02426223  0.82916065    -0.26500
O793        O  0.28207328  0.09208964  0.78988025    -0.58400
H794        H  0.22685274  0.08494350  0.76650903     0.16200
O795        O  0.19940193  0.99829056  0.82067162    -0.59800
H796        H  0.25394338  0.00679986  0.84617485     0.14700
H797        H  0.38193791  0.99483753  0.83130512     0.46500
H798        H  0.29376065  0.08250985  0.77264464     0.41900
H799        H  0.18640048  0.00528559  0.83820440     0.45400
H800        H  0.30486863  0.11519921  0.84367839     0.36800
C801        C  0.33168174  0.24156287  0.01371616    -0.27400
C802        C  0.33063654  0.23114659  0.98308317     0.02200
C803        C  0.31839567  0.25097820  0.96005845     0.30300
C804        C  0.30599719  0.27989664  0.96819530    -0.19200
C805        C  0.30488191  0.28914387  0.99910980    -0.28600
C806        C  0.31853196  0.27005110  0.02187569     0.44300
C807        C  0.34183262  0.19935588  0.97579042     0.05500
O808        O  0.31532147  0.24091413  0.93018307    -0.57100
H809        H  0.29428406  0.29365603  0.95071982     0.18400
O810        O  0.31695415  0.27809380  0.05246245    -0.63800
H811        H  0.34143864  0.22691375  0.03164236     0.16900
C812        C  0.36333083  0.19457786  0.95191336     0.29100
C813        C  0.37507189  0.16503247  0.94653440    -0.24700
C814        C  0.36766542  0.13986255  0.96596997    -0.24000
C815        C  0.34544777  0.14414713  0.98933193     0.40600
C816        C  0.33239515  0.17373205  0.99387840    -0.26500
O817        O  0.37481219  0.21895495  0.93501235    -0.58400
H818        H  0.39209543  0.16236049  0.92830054     0.16200
O819        O  0.33763268  0.12025837  0.00878707    -0.59800
H820        H  0.31572859  0.17693696  0.01231574     0.14700
H821        H  0.29944574  0.26586336  0.06107878     0.46500
H822        H  0.39287181  0.22675209  0.94696866     0.41900
H823        H  0.35242207  0.12175482  0.02631386     0.45400
H824        H  0.32798504  0.25535273  0.91751736     0.36800
C825        C  0.59822680  0.08123518  0.92958857    -0.27400
C826        C  0.60777363  0.09161277  0.95896229     0.02200
C827        C  0.58701436  0.08814190  0.98385849     0.30300
C828        C  0.55736031  0.07566108  0.97903945    -0.19200
C829        C  0.54688445  0.06710870  0.94941223    -0.28600
C830        C  0.56815531  0.06906707  0.92469968     0.44300
C831        C  0.63804977  0.10841025  0.96312350     0.05500
O832        O  0.59417473  0.09991635  0.01241302    -0.57100
H833        H  0.54175255  0.07463635  0.99861523     0.18400
O834        O  0.55924004  0.06130890  0.89533707    -0.63800
H835        H  0.61380562  0.08352989  0.91010108     0.16900
C836        C  0.65829459  0.10158923  0.98791462     0.29100
C837        C  0.68423405  0.12042618  0.99371847    -0.24700
C838        C  0.69191197  0.14542922  0.97418385    -0.24000
C839        C  0.67314837  0.15049642  0.94781008     0.40600
C840        C  0.64620334  0.13266737  0.94293497    -0.26500
O841        O  0.65313837  0.07639249  0.00660283    -0.58400
H842        H  0.69855284  0.11527926  0.01367936     0.16200
O843        O  0.68121661  0.17215020  0.92608346    -0.59800
H844        H  0.63150287  0.13799731  0.92329654     0.14700
H845        H  0.56527209  0.03923856  0.89295874     0.46500
H846        H  0.66176603  0.05843842  0.99519472     0.41900
H847        H  0.69628587  0.16152990  0.91240971     0.45400
H848        H  0.59480779  0.08179041  0.02656073     0.36800
C849        C  0.49496858  0.17399546  0.76242180    -0.27400
C850        C  0.46644404  0.17749411  0.77772986     0.02200
C851        C  0.44223170  0.19397445  0.76299594     0.30300
C852        C  0.44726030  0.20764133  0.73402549    -0.19200
C853        C  0.47632811  0.20557421  0.71953341    -0.28600
C854        C  0.50014791  0.18824078  0.73380415     0.44300
C855        C  0.46234710  0.16369426  0.80894987     0.05500
O856        O  0.41470735  0.19940182  0.77806116    -0.57100
H857        H  0.42931410  0.22230925  0.72415829     0.18400
O858        O  0.52928329  0.18705059  0.72100941    -0.63800
H859        H  0.51371825  0.16114260  0.77325553     0.16900
C860        C  0.43783723  0.14293092  0.81463469     0.29100
C861        C  0.43574541  0.12792773  0.84303875    -0.24700
C862        C  0.45861575  0.13191795  0.86601774    -0.24000
C863        C  0.48227465  0.15389796  0.86118098     0.40600
C864        C  0.48407479  0.16959206  0.83268819    -0.26500
O865        O  0.41693449  0.13544661  0.79188278    -0.58400
H866        H  0.41710794  0.11129060  0.84629787     0.16200
O867        O  0.50502675  0.15836618  0.88291179    -0.59800
H868        H  0.50305461  0.18563074  0.82870832     0.14700
H869        H  0.54119155  0.20392980  0.73110617     0.46500
H870        H  0.42677087  0.11827492  0.78023934     0.41900
H871        H  0.49649779  0.17424319  0.89709145     0.45400
H872        H  0.39845060  0.18891770  0.76560714     0.36800
C873        C  0.37455410  0.94944958  0.34881925    -0.27400
C874        C  0.39773130  0.97095819  0.35702167     0.02200
C875        C  0.40256164  0.99687034  0.33762900     0.30300
C876        C  0.38264027  0.00229227  0.31244592    -0.19200
C877        C  0.35833051  0.98166830  0.30523174    -0.28600
C878        C  0.35552260  0.95425196  0.32287838     0.44300
C879        C  0.41470136  0.96731175  0.38704621     0.05500
O880        O  0.42743710  0.01629129  0.34248523    -0.57100
H881        H  0.38622645  0.02289843  0.29853375     0.18400
O882        O  0.33471937  0.93162491  0.31472614    -0.63800
H883        H  0.37078648  0.92898460  0.36288300     0.16900
C884        C  0.41623177  0.99216949  0.40809561     0.29100
C885        C  0.42796603  0.98752356  0.43780261    -0.24700
C886        C  0.43689981  0.95788794  0.44825395    -0.24000
C887        C  0.43723862  0.93330435  0.42680266     0.40600
C888        C  0.42625113  0.93814882  0.39649695    -0.26500
O889        O  0.40379344  0.02061034  0.40097646    -0.58400
H890        H  0.42757789  0.00696705  0.45360337     0.16200
O891        O  0.44556214  0.90393504  0.43580045    -0.59800
H892        H  0.42539679  0.91867566  0.38076773     0.14700
H893        H  0.34522879  0.91953002  0.29833689     0.46500
H894        H  0.38137667  0.01894640  0.40609132     0.41900
H895        H  0.46829178  0.90272586  0.43215344     0.45400
H896        H  0.41863307  0.03743452  0.34483189     0.36800
C897        C  0.36819061  0.81221488  0.55243779    -0.27400
C898        C  0.34983982  0.80484810  0.52677061     0.02200
C899        C  0.34376133  0.82826120  0.50456270     0.30300
C900        C  0.35754009  0.85784737  0.50750708    -0.19200
C901        C  0.37725483  0.86438920  0.53248922    -0.28600
C902        C  0.38143399  0.84154893  0.55559306     0.44300
C903        C  0.33621582  0.77306624  0.52472986     0.05500
O904        O  0.32368233  0.82272542  0.48054623    -0.57100
H905        H  0.35376612  0.87515496  0.48971988     0.18400
O906        O  0.39928727  0.84744362  0.58119257    -0.63800
H907        H  0.37271487  0.79490878  0.57006950     0.16900
C908        C  0.33858028  0.75481691  0.49783011     0.29100
C909        C  0.32260578  0.72646554  0.49586494    -0.24700
C910        C  0.30463293  0.71564505  0.52068178    -0.24000
C911        C  0.30519880  0.73216459  0.54865090     0.40600
C912        C  0.32069306  0.76064899  0.55046608    -0.26500
O913        O  0.35530072  0.76501324  0.47288428    -0.58400
H914        H  0.32201324  0.71429009  0.47402687     0.16200
O915        O  0.28734380  0.72253227  0.57306299    -0.59800
H916        H  0.31899248  0.77392797  0.57158837     0.14700
H917        H  0.38475383  0.85666246  0.59635117     0.46500
H918        H  0.37716292  0.75924766  0.47744227     0.41900
H919        H  0.30223350  0.71339825  0.58804182     0.45400
H920        H  0.33655849  0.82365920  0.46159844     0.36800
C921        C  0.32268605  0.99782357  0.66011471    -0.27400
C922        C  0.29796483  0.97744652  0.65322434     0.02200
C923        C  0.30369947  0.95178604  0.63416222     0.30300
C924        C  0.33303383  0.94786653  0.62092506    -0.19200
C925        C  0.35717371  0.96944765  0.62582832    -0.28600
C926        C  0.35218641  0.99389449  0.64670163     0.44300
C927        C  0.26590892  0.98455834  0.66405111     0.05500
O928        O  0.27999500  0.93216223  0.62584867    -0.57100
H929        H  0.33629268  0.92863201  0.60519313     0.18400
O930        O  0.37496594  0.01544179  0.65220832    -0.63800
H931        H  0.31874592  0.01752695  0.67508282     0.16900
C932        C  0.24793609  0.96272168  0.68055325     0.29100
C933        C  0.21875843  0.97117446  0.69229530    -0.24700
C934        C  0.20762486  0.00164227  0.68900640    -0.24000
C935        C  0.22495241  0.02294351  0.67129589     0.40600
C936        C  0.25350456  0.01417977  0.65855846    -0.26500
O937        O  0.25966106  0.93394059  0.68752036    -0.58400
H938        H  0.20650976  0.95498331  0.70709914     0.16200
O939        O  0.21565867  0.05331840  0.66902660    -0.59800
H940        H  0.26683861  0.03120424  0.64575378     0.14700
H941        H  0.38687062  0.00715023  0.67003121     0.46500
H942        H  0.27237173  0.93694056  0.70639969     0.41900
H943        H  0.22731066  0.06447253  0.68536539     0.45400
H944        H  0.28535274  0.91176963  0.63510120     0.36800
C945        C  0.46779931  0.10564286  0.57645381    -0.27400
C946        C  0.44615666  0.11734239  0.59769527     0.02200
C947        C  0.41861350  0.10043911  0.60311504     0.30300
C948        C  0.41400330  0.07148606  0.58883826    -0.19200
C949        C  0.43689681  0.05868561  0.56952947    -0.28600
C950        C  0.46353511  0.07647761  0.56274621     0.44300
C951        C  0.45413571  0.14551142  0.61606031     0.05500
O952        O  0.39708424  0.11097973  0.62391537    -0.57100
H953        H  0.39375538  0.05785511  0.59500694     0.18400
O954        O  0.48606087  0.06500228  0.54350631    -0.63800
H955        H  0.48888662  0.11852350  0.57163551     0.16900
C956        C  0.48047932  0.14552117  0.63549397     0.29100
C957        C  0.48875840  0.17231954  0.65187424    -0.24700
C958        C  0.47125304  0.19966310  0.64920138    -0.24000
C959        C  0.44452977  0.19956247  0.63020292     0.40600
C960        C  0.43607170  0.17261423  0.61391923    -0.26500
O961        O  0.49800287  0.11914542  0.63904002    -0.58400
H962        H  0.50947818  0.17193261  0.66605863     0.16200
O963        O  0.42672893  0.22579796  0.62712819    -0.59800
H964        H  0.41571529  0.17304080  0.59915434     0.14700
H965        H  0.50287539  0.05746091  0.55732040     0.46500
H966        H  0.51645880  0.12224947  0.62569162     0.41900
H967        H  0.41206778  0.22522084  0.64475976     0.45400
H968        H  0.40351417  0.10203855  0.64405333     0.36800
C969        C  0.40847405  0.58742070  0.50729955    -0.27400
C970        C  0.38714583  0.58831764  0.53173937     0.02200
C971        C  0.39532407  0.57368786  0.55984934     0.30300
C972        C  0.42560813  0.56182124  0.56414193    -0.19200
C973        C  0.44788075  0.56382856  0.54051817    -0.28600
C974        C  0.43818576  0.57489386  0.51123642     0.44300
C975        C  0.35751298  0.60612559  0.52756396     0.05500
O976        O  0.37375189  0.57055760  0.58298092    -0.57100
H977        H  0.43205058  0.55253548  0.58650828     0.18400
O978        O  0.45814537  0.57535464  0.48657067    -0.63800
H979        H  0.40266446  0.59781779  0.48524233     0.16900
C980        C  0.34787707  0.62866356  0.54917867     0.29100
C981        C  0.32148419  0.64693757  0.54339294    -0.24700
C982        C  0.30482454  0.64423504  0.51563418    -0.24000
C983        C  0.31475786  0.62220027  0.49375103     0.40600
C984        C  0.34048478  0.60317936  0.49995707    -0.26500
O985        O  0.36466862  0.63394775  0.57556650    -0.58400
H986        H  0.31415793  0.66346493  0.56065831     0.16200
O987        O  0.29983675  0.61943174  0.46588798    -0.59800
H988        H  0.34754494  0.58642174  0.48274865     0.14700
H989        H  0.45610727  0.55459693  0.47696028     0.46500
H990        H  0.38145037  0.64845720  0.56938291     0.41900
H991        H  0.30882857  0.63595716  0.45266901     0.45400
H992        H  0.38263018  0.58129319  0.60120257     0.36800
C993        C  0.60074375  0.52476840  0.33591899    -0.27400
C994        C  0.60966952  0.54956107  0.35511079     0.02200
C995        C  0.63491424  0.56824892  0.34565520     0.30300
C996        C  0.65014064  0.56228025  0.31758546    -0.19200
C997        C  0.64194345  0.53681823  0.29897026    -0.28600
C998        C  0.61695379  0.51790477  0.30869224     0.44300
C999        C  0.59482734  0.55311635  0.38628816     0.05500
O1000       O  0.64651507  0.59083150  0.36475162    -0.57100
H1001       H  0.66882776  0.57755435  0.31064492     0.18400
O1002       O  0.60872129  0.49191561  0.29242055    -0.63800
H1003       H  0.58160821  0.50985835  0.34258692     0.16900
C1004       C  0.58610473  0.58218934  0.39875994     0.29100
C1005       C  0.57601512  0.58441548  0.42963843    -0.24700
C1006       C  0.57351748  0.55782129  0.44834709    -0.24000
C1007       C  0.57922950  0.52855987  0.43472191     0.40600
C1008       C  0.59016971  0.52650580  0.40444605    -0.26500
O1009       O  0.58768639  0.60863878  0.38120621    -0.58400
H1010       H  0.57131500  0.60710873  0.43924710     0.16200
O1011       O  0.57546686  0.50160653  0.45120945    -0.59800
H1012       H  0.59611629  0.50380565  0.39555144     0.14700
H1013       H  0.62333195  0.47551849  0.29940853     0.46500
H1014       H  0.56683313  0.61073618  0.37161582     0.41900
H1015       H  0.55317154  0.49618385  0.44886993     0.45400
H1016       H  0.64339924  0.61072031  0.35359207     0.36800
C1017       C  0.51957079  0.40263973  0.56774169    -0.27400
C1018       C  0.54138455  0.38777894  0.58681039     0.02200
C1019       C  0.57121946  0.40100193  0.59001429     0.30300
C1020       C  0.57789541  0.42990077  0.57629195    -0.19200
C1021       C  0.55501387  0.44613083  0.55953793    -0.28600
C1022       C  0.52615273  0.43140931  0.55415912     0.44300
C1023       C  0.53140992  0.36057932  0.60569774     0.05500
O1024       O  0.59320448  0.38704158  0.60835079    -0.57100
H1025       H  0.59995170  0.44085841  0.58123107     0.18400
O1026       O  0.50320305  0.44612492  0.53767119    -0.63800
H1027       H  0.49666016  0.39261789  0.56467592     0.16900
C1028       C  0.50654981  0.36348357  0.62670241     0.29100
C1029       C  0.49670690  0.33788094  0.64409294    -0.24700
C1030       C  0.51155034  0.30903307  0.64142661    -0.24000
C1031       C  0.53641654  0.30603200  0.62041679     0.40600
C1032       C  0.54623623  0.33168887  0.60281949    -0.26500
O1033       O  0.49177938  0.39141556  0.63055167    -0.58400
H1034       H  0.47728576  0.34058910  0.65965593     0.16200
O1035       O  0.55134389  0.27813531  0.61699276    -0.59800
H1036       H  0.56530666  0.32898270  0.58674847     0.14700
H1037       H  0.50747516  0.44102671  0.51578978     0.46500
H1038       H  0.50447474  0.40274940  0.64597239     0.41900
H1039       H  0.56766075  0.27788109  0.63319423     0.45400
H1040       H  0.59028908  0.39618254  0.62912471     0.36800
C1041       C  0.66119132  0.25804414  0.99401901    -0.27400
C1042       C  0.66596893  0.27651792  0.96770000     0.02200
C1043       C  0.68387645  0.26478564  0.94320811     0.30300
C1044       C  0.69786930  0.23567773  0.94584797    -0.19200
C1045       C  0.69479606  0.21793048  0.97287978    -0.28600
C1046       C  0.67566784  0.22896946  0.99678688     0.44300
C1047       C  0.65226249  0.30799805  0.96559270     0.05500
O1048       O  0.69045050  0.28299312  0.91800456    -0.57100
H1049       H  0.71391103  0.22833716  0.92802422     0.18400
O1050       O  0.67328343  0.21275415  0.02395892    -0.63800
H1051       H  0.64722581  0.26670895  0.01291198     0.16900
C1052       C  0.63259890  0.31541337  0.94079888     0.29100
C1053       C  0.62026269  0.34509281  0.93819195    -0.24700
C1054       C  0.62555364  0.36775936  0.96098056    -0.24000
C1055       C  0.64560773  0.36066147  0.98572135     0.40600
C1056       C  0.65903135  0.33088041  0.98780035    -0.26500
O1057       O  0.62429199  0.29339637  0.91950354    -0.58400
H1058       H  0.60483228  0.34982513  0.91892667     0.16200
O1059       O  0.65122054  0.38202178  0.00844521    -0.59800
H1060       H  0.67432218  0.32547190  0.00696955     0.14700
H1061       H  0.69015642  0.22091733  0.03730398     0.46500
H1062       H  0.60619585  0.28248335  0.92864575     0.41900
H1063       H  0.63623697  0.37698612  0.02508730     0.45400
H1064       H  0.68024892  0.27265861  0.90024515     0.36800
C1065       C  0.51055247  0.34937766  0.82212711    -0.27400
C1066       C  0.52872259  0.35940556  0.79694266     0.02200
C1067       C  0.55055124  0.38313142  0.80151524     0.30300
C1068       C  0.55341811  0.39689224  0.83053793    -0.19200
C1069       C  0.53453610  0.38783434  0.85565480    -0.28600
C1070       C  0.51345320  0.36325176  0.85135943     0.44300
C1071       C  0.52380791  0.34563157  0.76588596     0.05500
O1072       O  0.56742454  0.39469212  0.77719118    -0.57100
H1073       H  0.56996690  0.41567816  0.83298484     0.18400
O1074       O  0.49435850  0.35381894  0.87485945    -0.63800
H1075       H  0.49366972  0.33099536  0.81895279     0.16900
C1076       C  0.54813705  0.33090187  0.74973287     0.29100
C1077       C  0.54156611  0.31400684  0.72283586    -0.24700
C1078       C  0.51100284  0.31170389  0.71169699    -0.24000
C1079       C  0.48724640  0.32857467  0.72639688     0.40600
C1080       C  0.49375339  0.34536367  0.75325057    -0.26500
O1081       O  0.57760267  0.32992271  0.76191138    -0.58400
H1082       H  0.55981446  0.30023862  0.71240404     0.16200
O1083       O  0.45693939  0.32548971  0.71688305    -0.59800
H1084       H  0.47487031  0.35681304  0.76521848     0.14700
H1085       H  0.50470435  0.33534061  0.88390073     0.46500
H1086       H  0.59074294  0.34190347  0.74734826     0.41900
H1087       H  0.45075865  0.34626955  0.70913385     0.45400
H1088       H  0.58950303  0.39013071  0.78211322     0.36800
C1089       C  0.56856905  0.48355579  0.09486800    -0.27400
C1090       C  0.59181781  0.46521164  0.10853323     0.02200
C1091       C  0.59984373  0.43685209  0.09440683     0.30300
C1092       C  0.58628623  0.42839821  0.06597655    -0.19200
C1093       C  0.56482803  0.44807271  0.05112884    -0.28600
C1094       C  0.55508760  0.47514985  0.06657922     0.44300
C1095       C  0.60935411  0.47735199  0.13578284     0.05500
O1096       O  0.62249825  0.41834492  0.10705934    -0.57100
H1097       H  0.59470010  0.40790665  0.05422323     0.18400
O1098       O  0.53422624  0.49495548  0.05287821    -0.63800
H1099       H  0.56189800  0.50528925  0.10548395     0.16900
C1100       C  0.62824375  0.50397889  0.13300068     0.29100
C1101       C  0.64435297  0.51564022  0.15872908    -0.24700
C1102       C  0.64206300  0.50118880  0.18774153    -0.24000
C1103       C  0.62316718  0.47448552  0.19050886     0.40600
C1104       C  0.60715793  0.46272245  0.16468866    -0.26500
O1105       O  0.63112387  0.51879625  0.10510926    -0.58400
H1106       H  0.65851697  0.53624251  0.15603886     0.16200
O1107       O  0.62029001  0.45956732  0.21834607    -0.59800
H1108       H  0.59276458  0.44225910  0.16729297     0.14700
H1109       H  0.51345823  0.48636861  0.05797227     0.46500
H1110       H  0.64969462  0.50939789  0.09532031     0.41900
H1111       H  0.63890755  0.44607086  0.21998784     0.45400
H1112       H  0.64228197  0.42572635  0.09787298     0.36800
C1113       C  0.40049467  0.41000983  0.92965344    -0.27400
C1114       C  0.38789012  0.41322059  0.95941216     0.02200
C1115       C  0.40357396  0.43208965  0.98088792     0.30300
C1116       C  0.43254323  0.44502353  0.97356089    -0.19200
C1117       C  0.44639108  0.43997393  0.94465072    -0.28600
C1118       C  0.42959122  0.42314450  0.92223311     0.44300
C1119       C  0.36030430  0.39458403  0.96920934     0.05500
O1120       O  0.39153784  0.43664232  0.00980873    -0.57100
H1121       H  0.44513419  0.45759910  0.99124006     0.18400
O1122       O  0.44254108  0.41712597  0.89397955    -0.63800
H1123       H  0.38876423  0.39562014  0.91280015     0.16900
C1124       C  0.33098227  0.39795159  0.95505029     0.29100
C1125       C  0.30534514  0.38076836  0.96582755    -0.24700
C1126       C  0.30829813  0.36008558  0.99090101    -0.24000
C1127       C  0.33773748  0.35688814  0.00504046     0.40600
C1128       C  0.36333289  0.37370476  0.99399047    -0.26500
O1129       O  0.32696201  0.41849035  0.93116440    -0.58400
H1130       H  0.28295520  0.38383240  0.95471971     0.16200
O1131       O  0.34167184  0.33821940  0.03039379    -0.59800
H1132       H  0.38568434  0.37082705  0.00523860     0.14700
H1133       H  0.45366365  0.39713152  0.89655990     0.46500
H1134       H  0.32132249  0.43841649  0.94108929     0.41900
H1135       H  0.33435057  0.35071413  0.04813445     0.45400
H1136       H  0.37650221  0.45393852  0.00742088     0.36800
C1137       C  0.85672810  0.87626567  0.49639726    -0.27400
C1138       C  0.85403960  0.89462769  0.46964946     0.02200
C1139       C  0.82544576  0.89479136  0.45364954     0.30300
C1140       C  0.80025800  0.87695119  0.46450605    -0.19200
C1141       C  0.80310158  0.85847428  0.49120156    -0.28600
C1142       C  0.83163934  0.85855285  0.50725955     0.44300
C1143       C  0.88163002  0.91275676  0.45876509     0.05500
O1144       O  0.82176449  0.91253017  0.42759000    -0.57100
H1145       H  0.77839058  0.87755110  0.45205716     0.18400
O1146       O  0.83512683  0.84187159  0.53402230    -0.63800
H1147       H  0.87852769  0.87558212  0.50895891     0.16900
C1148       C  0.89706679  0.93342539  0.47875271     0.29100
C1149       C  0.92642474  0.94527717  0.47089788    -0.24700
C1150       C  0.94104080  0.93693951  0.44313635    -0.24000
C1151       C  0.92437665  0.91859536  0.42185561     0.40600
C1152       C  0.89485978  0.90674631  0.42970231    -0.26500
O1153       O  0.88391985  0.94151727  0.50642501    -0.58400
H1154       H  0.93876536  0.95940677  0.48755797     0.16200
O1155       O  0.93782011  0.90983346  0.39454973    -0.59800
H1156       H  0.88333469  0.89100701  0.41394317     0.14700
H1157       H  0.82666263  0.85535032  0.55050756     0.46500
H1158       H  0.89605421  0.93026065  0.52240218     0.41900
H1159       H  0.94841049  0.88987650  0.39905612     0.45400
H1160       H  0.81547871  0.93330703  0.43513034     0.36800
C1161       C  0.66308302  0.89083326  0.56754135    -0.27400
C1162       C  0.63945139  0.89492820  0.54533706     0.02200
C1163       C  0.64332745  0.88085349  0.51610870     0.30300
C1164       C  0.67029496  0.86374051  0.50945690    -0.19200
C1165       C  0.69360338  0.85959251  0.53172448    -0.28600
C1166       C  0.68977383  0.87314585  0.56099059     0.44300
C1167       C  0.61063056  0.91320094  0.55275878     0.05500
O1168       O  0.62066419  0.88325532  0.49392110    -0.57100
H1169       H  0.67291802  0.85343744  0.48683456     0.18400
O1170       O  0.71227473  0.86966182  0.58318984    -0.63800
H1171       H  0.66097872  0.90154648  0.59001460     0.16900
C1172       C  0.59323410  0.90753448  0.57987816     0.29100
C1173       C  0.56429058  0.92212904  0.58431584    -0.24700
C1174       C  0.55174637  0.94197755  0.56172378    -0.24000
C1175       C  0.56995362  0.94919186  0.53567033     0.40600
C1176       C  0.59915021  0.93521591  0.53155005    -0.26500
O1177       O  0.60318586  0.88616963  0.60122825    -0.58400
H1178       H  0.55041450  0.91572229  0.60419203     0.16200
O1179       O  0.55857420  0.96848897  0.51310991    -0.59800
H1180       H  0.61233765  0.94071137  0.51097867     0.14700
H1181       H  0.70651014  0.85050607  0.59453540     0.46500
H1182       H  0.59526497  0.86591986  0.59375834     0.41900
H1183       H  0.56283344  0.98978972  0.52060534     0.45400
H1184       H  0.60695887  0.86505018  0.49723637     0.36800
C1185       C  0.63770108  0.68971643  0.57109901    -0.27400
C1186       C  0.65511440  0.69927608  0.54554578     0.02200
C1187       C  0.66082699  0.67790952  0.52152352     0.30300
C1188       C  0.64738734  0.64813335  0.52242895    -0.19200
C1189       C  0.62804540  0.63952675  0.54701150    -0.28600
C1190       C  0.62425296  0.66024365  0.57198584     0.44300
C1191       C  0.66738636  0.73149552  0.54450583     0.05500
O1192       O  0.67969808  0.68591125  0.49727349    -0.57100
H1193       H  0.65057967  0.63256800  0.50310323     0.18400
O1194       O  0.60589638  0.65251084  0.59672317    -0.63800
H1195       H  0.63357016  0.70561185  0.58998873     0.16900
C1196       C  0.66026040  0.75170827  0.51984782     0.29100
C1197       C  0.67564752  0.78027615  0.51720046    -0.24700
C1198       C  0.69787879  0.78923289  0.53918616    -0.24000
C1199       C  0.70213698  0.77063359  0.56569263     0.40600
C1200       C  0.68702315  0.74197178  0.56816338    -0.26500
O1201       O  0.63961596  0.74302170  0.49732410    -0.58400
H1202       H  0.67244095  0.79396773  0.49644262     0.16200
O1203       O  0.72418687  0.77840602  0.58723380    -0.59800
H1204       H  0.69226401  0.72700309  0.58761751     0.14700
H1205       H  0.61875857  0.63832674  0.60950716     0.46500
H1206       H  0.61879468  0.74803923  0.50575982     0.41900
H1207       H  0.71282407  0.79045646  0.60307255     0.45400
H1208       H  0.66564037  0.68825152  0.47924702     0.36800
C1209       C  0.85384404  0.69035351  0.44984430    -0.27400
C1210       C  0.83742924  0.69530154  0.47724296     0.02200
C1211       C  0.83286068  0.66983102  0.49748780     0.30300
C1212       C  0.84744747  0.64105095  0.49159364    -0.19200
C1213       C  0.86627653  0.63722661  0.46545337    -0.28600
C1214       C  0.86793055  0.66181971  0.44375762     0.44300
C1215       C  0.82590615  0.72731997  0.48413952     0.05500
O1216       O  0.81377570  0.67276043  0.52267960    -0.57100
H1217       H  0.84541590  0.62241805  0.50829306     0.18400
O1218       O  0.88416105  0.65840674  0.41669262    -0.63800
H1219       H  0.85700002  0.70916685  0.43351350     0.16900
C1220       C  0.83163563  0.74165240  0.51284209     0.29100
C1221       C  0.81893008  0.77090621  0.51926317    -0.24700
C1222       C  0.80119768  0.78692719  0.49709480    -0.24000
C1223       C  0.79811166  0.77403106  0.46744563     0.41400
C1224       C  0.81017530  0.74445877  0.46121323    -0.26500
O1225       O  0.84880303  0.72692369  0.53518156    -0.58400
H1226       H  0.82087194  0.78003598  0.54245534     0.16200
O1227       O  0.78013278  0.78851348  0.44555878    -0.59800
H1228       H  0.80592007  0.73428541  0.43876981     0.14700
H1229       H  0.90339561  0.67087152  0.41924842     0.46500
H1230       H  0.87068342  0.73278592  0.53093539     0.41900
H1231       H  0.79413415  0.80381745  0.43560091     0.45400
H1232       H  0.82720056  0.66915670  0.54098089     0.36800
C1233       C  0.49054919  0.86044685  0.87164116    -0.27400
C1234       C  0.46170902  0.86151013  0.88694078     0.02200
C1235       C  0.44191851  0.83543639  0.88499654     0.30300
C1236       C  0.45092685  0.80927953  0.86787753    -0.19200
C1237       C  0.47974362  0.80839571  0.85269454    -0.28600
C1238       C  0.49981170  0.83404533  0.85520258     0.44300
C1239       C  0.45245975  0.89019006  0.90406843     0.05500
O1240       O  0.41384429  0.83511726  0.89995830    -0.57100
H1241       H  0.43541775  0.78951589  0.86654618     0.18400
O1242       O  0.52875414  0.83341690  0.84202243    -0.63800
H1243       H  0.50602631  0.88024824  0.87230977     0.16900
C1244       C  0.47328726  0.90495795  0.92451984     0.29100
C1245       C  0.46605641  0.93421564  0.93671742    -0.24700
C1246       C  0.43800071  0.94917435  0.92923156    -0.24000
C1247       C  0.41608541  0.93337879  0.91089269     0.40600
C1248       C  0.42348362  0.90430731  0.89825926    -0.26500
O1249       O  0.50085890  0.89100842  0.93256193    -0.58400
H1250       H  0.48316593  0.94597610  0.95087800     0.16200
O1251       O  0.38880775  0.94754716  0.90241902    -0.59800
H1252       H  0.40718396  0.89362018  0.88244540     0.14700
H1253       H  0.54242747  0.82346360  0.85761877     0.46500
H1254       H  0.51740355  0.90377133  0.92289335     0.41900
H1255       H  0.37383837  0.94225243  0.91899217     0.45400
H1256       H  0.41873063  0.82892244  0.92148138     0.36800
C1257       C  0.51630304  0.60286972  0.92795751    -0.27400
C1258       C  0.53918588  0.61796678  0.91038008     0.02200
C1259       C  0.56943082  0.60515835  0.90956600     0.30300
C1260       C  0.57558313  0.57655712  0.92401939    -0.19200
C1261       C  0.55173748  0.56002258  0.93885651    -0.28600
C1262       C  0.52227391  0.57413510  0.94188332     0.44300
C1263       C  0.53051140  0.64548000  0.89115271     0.05500
O1264       O  0.59254167  0.61916445  0.89278902    -0.57100
H1265       H  0.59822210  0.56594529  0.92096842     0.18400
O1266       O  0.49836359  0.55885111  0.95630754    -0.63800
H1267       H  0.49315609  0.61266586  0.92961097     0.16900
C1268       C  0.50453145  0.64445558  0.87110663     0.29100
C1269       C  0.49661845  0.67035352  0.85310415    -0.24700
C1270       C  0.51445106  0.69753966  0.85428490    -0.24000
C1271       C  0.54045254  0.69862279  0.87414053     0.40600
C1272       C  0.54827423  0.67281124  0.89236852    -0.26500
O1273       O  0.48672242  0.61816145  0.86878828    -0.58400
H1274       H  0.47622976  0.66929262  0.83845759     0.16200
O1275       O  0.55827078  0.72494366  0.87606450    -0.59800
H1276       H  0.56813027  0.67426350  0.90771666     0.14700
H1277       H  0.50100747  0.56346491  0.97855886     0.46500
H1278       H  0.49750264  0.60499137  0.85342463     0.41900
H1279       H  0.57245571  0.72404555  0.85806842     0.45400
H1280       H  0.59071173  0.61038983  0.87173065     0.36800
C1281       C  0.44869191  0.81798428  0.73753442    -0.27400
C1282       C  0.47263781  0.83678429  0.72586665     0.02200
C1283       C  0.49910469  0.84230924  0.74428058     0.30300
C1284       C  0.50287729  0.82620243  0.77219470    -0.19200
C1285       C  0.48000471  0.80547424  0.78253231    -0.28600
C1286       C  0.45209373  0.80267710  0.76576224     0.44300
C1287       C  0.46942905  0.85034038  0.69451745     0.05500
O1288       O  0.52125976  0.86333559  0.73510536    -0.57100
H1289       H  0.52480093  0.82801569  0.78432623     0.18400
O1290       O  0.42965470  0.78200221  0.77491580    -0.63800
H1291       H  0.42793276  0.81383502  0.72394358     0.16900
C1292       C  0.49280185  0.84715360  0.67181382     0.29100
C1293       C  0.48934277  0.86174216  0.64292866    -0.24700
C1294       C  0.46277733  0.87943577  0.63651313    -0.24000
C1295       C  0.43839207  0.88027710  0.65835097     0.40600
C1296       C  0.44199460  0.86611977  0.68704523    -0.26500
O1297       O  0.51871387  0.82941346  0.67751481    -0.58400
H1298       H  0.50813496  0.86067184  0.62633943     0.16200
O1299       O  0.41158961  0.89663499  0.65254055    -0.59800
H1300       H  0.42355623  0.86833026  0.70391954     0.14700
H1301       H  0.41828406  0.79257940  0.79176928     0.46500
H1302       H  0.53666054  0.84381574  0.67617362     0.41900
H1303       H  0.39595393  0.88085337  0.64654777     0.45400
H1304       H  0.54088200  0.85141815  0.73301432     0.36800
C1305       C  0.53953093  0.67812199  0.73948041    -0.27400
C1306       C  0.51291859  0.66339097  0.72759017     0.02200
C1307       C  0.48529674  0.66397527  0.74517624     0.30300
C1308       C  0.48403474  0.68092332  0.77273153    -0.19200
C1309       C  0.50999720  0.69753075  0.78337558    -0.28600
C1310       C  0.53810915  0.69534207  0.76690150     0.44300
C1311       C  0.51397688  0.64809456  0.69668407     0.05500
O1312       O  0.45876367  0.64980695  0.73465996    -0.57100
H1313       H  0.46188114  0.68337914  0.78435652     0.18400
O1314       O  0.56368915  0.71186314  0.77627764    -0.63800
H1315       H  0.56121981  0.67731095  0.72683755     0.16900
C1316       C  0.52537791  0.66366223  0.67021537     0.29100
C1317       C  0.52745307  0.64807653  0.64172869    -0.24700
C1318       C  0.51845150  0.61690089  0.63926530    -0.24000
C1319       C  0.50538810  0.60205695  0.66532252     0.40600
C1320       C  0.50353874  0.61745556  0.69360631    -0.26500
O1321       O  0.53410270  0.69422817  0.67189771    -0.58400
H1322       H  0.53740339  0.65992746  0.62200435     0.16200
O1323       O  0.49516680  0.57194755  0.66363038    -0.59800
H1324       H  0.49458593  0.60504276  0.71346114     0.14700
H1325       H  0.56300838  0.73147452  0.76426356     0.46500
H1326       H  0.55714819  0.69411589  0.67088807     0.41900
H1327       H  0.47394395  0.57327256  0.65471079     0.45400
H1328       H  0.44909724  0.66493576  0.72026974     0.36800
C1329       C  0.90461378  0.49390702  0.83549564    -0.27400
C1330       C  0.89889496  0.46756381  0.85393504     0.02200
C1331       C  0.87334551  0.44845811  0.84614188     0.30300
C1332       C  0.85430234  0.45591200  0.82071992    -0.19200
C1333       C  0.85957932  0.48268471  0.80287337    -0.28600
C1334       C  0.88512772  0.50172671  0.81064257     0.44300
C1335       C  0.91702673  0.46292809  0.88329149     0.05500
O1336       O  0.86547160  0.42360822  0.86437384    -0.57100
H1337       H  0.83535561  0.44048843  0.81491940     0.18400
O1338       O  0.89101109  0.52848562  0.79448347    -0.63800
H1339       H  0.92394666  0.50908895  0.84086475     0.16900
C1340       C  0.92782231  0.43357643  0.89351537     0.29100
C1341       C  0.93901165  0.42975027  0.92392280    -0.24700
C1342       C  0.94083225  0.45516807  0.94413442    -0.24000
C1343       C  0.93438666  0.48507532  0.93215707     0.40600
C1344       C  0.92205566  0.48860482  0.90251142    -0.26500
O1345       O  0.92681604  0.40832393  0.87438507    -0.58400
H1346       H  0.94454246  0.40664576  0.93215823     0.16200
O1347       O  0.93791276  0.51105897  0.95005071    -0.59800
H1348       H  0.91487002  0.51157689  0.89522570     0.14700
H1349       H  0.87732684  0.54439730  0.80385390     0.46500
H1350       H  0.94556816  0.41014932  0.86121703     0.41900
H1351       H  0.95988810  0.51742899  0.94722754     0.45400
H1352       H  0.86906572  0.40497852  0.85146473     0.36800
C1353       C  0.88761603  0.54905306  0.66412405    -0.27400
C1354       C  0.88545978  0.53193598  0.63666670     0.02200
C1355       C  0.86658785  0.50508351  0.63637839     0.30300
C1356       C  0.85064323  0.49564304  0.66311290    -0.19200
C1357       C  0.85307794  0.51256982  0.69066231    -0.28600
C1358       C  0.87174832  0.53955897  0.69088692     0.44300
C1359       C  0.90291649  0.54192830  0.60842536     0.05500
O1360       O  0.86350275  0.48786813  0.60998434    -0.57100
H1361       H  0.83663971  0.47476918  0.66241022     0.18400
O1362       O  0.87468728  0.55688240  0.71723436    -0.63800
H1363       H  0.90196537  0.56969409  0.66491789     0.16900
C1364       C  0.89798199  0.57123658  0.59457566     0.29100
C1365       C  0.91202225  0.57858686  0.56608302    -0.24700
C1366       C  0.93080898  0.55686298  0.55068747    -0.24000
C1367       C  0.93715702  0.52831783  0.56553826     0.40600
C1368       C  0.92351070  0.52120214  0.59412595    -0.26500
O1369       O  0.87793156  0.59212071  0.60769171    -0.58400
H1370       H  0.90611275  0.60029533  0.55484508     0.16200
O1371       O  0.95599525  0.50674773  0.55170664    -0.59800
H1372       H  0.92813089  0.49882291  0.60462506     0.14700
H1373       H  0.85588820  0.57020621  0.71778155     0.46500
H1374       H  0.85702938  0.58635228  0.59986505     0.41900
H1375       H  0.94173036  0.49066342  0.54349146     0.45400
H1376       H  0.84667874  0.49815048  0.59806932     0.36800
C1377       C  0.74655124  0.51618521  0.83104504    -0.27400
C1378       C  0.73020381  0.48864752  0.83722641     0.02200
C1379       C  0.74394440  0.46011904  0.82904317     0.30300
C1380       C  0.77187237  0.45960001  0.81228048    -0.19200
C1381       C  0.78712346  0.48727331  0.80420186    -0.28600
C1382       C  0.77477688  0.51563407  0.81483315     0.44300
C1383       C  0.69825286  0.48996852  0.85068761     0.05500
O1384       O  0.72935918  0.43266015  0.83585433    -0.57100
H1385       H  0.78023961  0.43766783  0.80340532     0.18400
O1386       O  0.78793239  0.54322497  0.80591699    -0.63800
H1387       H  0.73641625  0.53837387  0.83703205     0.16900
C1388       C  0.69273170  0.50490040  0.87898491     0.29100
C1389       C  0.66310502  0.50376499  0.89239114    -0.24700
C1390       C  0.63827639  0.48833880  0.87784673    -0.24000
C1391       C  0.64317895  0.47510198  0.84864389     0.40600
C1392       C  0.67301917  0.47585692  0.83532147    -0.26500
O1393       O  0.71672636  0.51841691  0.89494562    -0.58400
H1394       H  0.65991199  0.51351411  0.91520183     0.16200
O1395       O  0.61979462  0.45908169  0.83421178    -0.59800
H1396       H  0.67668505  0.46466491  0.81327251     0.14700
H1397       H  0.80657521  0.54564455  0.81919796     0.46500
H1398       H  0.71388072  0.54107444  0.89205808     0.41900
H1399       H  0.60773686  0.47502220  0.82278327     0.45400
H1400       H  0.73932285  0.42524795  0.85516950     0.36800
C1401       C  0.68385312  0.49207347  0.62543303    -0.27400
C1402       C  0.69104332  0.50634337  0.65354279     0.02200
C1403       C  0.66747154  0.52299599  0.66910828     0.30300
C1404       C  0.63805766  0.52696036  0.65539847    -0.19200
C1405       C  0.63160885  0.51394379  0.62649047    -0.28600
C1406       C  0.65444713  0.49557421  0.61202382     0.44300
C1407       C  0.72341905  0.50448565  0.66573108     0.05500
O1408       O  0.67331461  0.53651373  0.69713102    -0.57100
H1409       H  0.62103315  0.54177256  0.66641274     0.18400
O1410       O  0.64913764  0.48357701  0.58316453    -0.63800
H1411       H  0.70158889  0.47940968  0.61297045     0.16900
C1412       C  0.73868630  0.47568115  0.66897284     0.29100
C1413       C  0.76805687  0.47421186  0.68288110    -0.24700
C1414       C  0.78255016  0.50109496  0.69410421    -0.24000
C1415       C  0.76852519  0.53008983  0.68866853     0.40600
C1416       C  0.73920805  0.53165947  0.67451280    -0.26500
O1417       O  0.72421871  0.44858566  0.66066896    -0.58400
H1418       H  0.77819643  0.45167821  0.68767446     0.16200
O1419       O  0.78171084  0.55666395  0.70008531    -0.59800
H1420       H  0.72822035  0.55408797  0.67150297     0.14700
H1421       H  0.65125262  0.46077202  0.58543883     0.46500
H1422       H  0.71139407  0.44265256  0.67874509     0.41900
H1423       H  0.79784672  0.56253620  0.68482877     0.45400
H1424       H  0.67058978  0.51966046  0.71251048     0.36800
loop_ 
_geom_bond_atom_site_label_1 
_geom_bond_atom_site_label_2 
_geom_bond_distance 
_geom_bond_site_symmetry_2 
_ccdc_geom_bond_type 
C1            C2   1.414       .  A
C1            C6   1.396       .  A
C1         C1414   1.478       .  S
C2            C3   1.416       .  A
C2         C1357   1.498       .  S
C3            C4   1.420       .  A
C3            H8   1.083       .  S
C4            C5   1.421       .  A
C4         C1333   1.501       .  S
C5            C6   1.395       .  A
C5         C1381   1.486       .  S
C6            H7   1.087       .  S
C9           C10   1.416       .  A
C9           C14   1.416       .  A
C9         C1270   1.487       .  S
C10          C11   1.393       .  A
C10        C1309   1.483       .  S
C11          C12   1.395       .  A
C11          H16   1.087       .  S
C12          C13   1.411       .  A
C12        C1285   1.474       .  S
C13          C14   1.411       .  A
C13        C1237   1.489       .  S
C14          H15   1.084       .  S
C17          C18   1.418       .  A
C17          C22   1.419       .  A
C17        C1141   1.496       .  S
C18          C19   1.393       .  A
C18        C1222   1.482       .  S
C19          C20   1.394       .  A
C19          H24   1.087       .  S
C20          C21   1.413       .  A
C20        C1198   1.481       .  S
C21          C22   1.416       .  A
C21        C1165   1.489       .  S
C22          H23   1.084       .  S
Fe25         O41   2.135       .  S
Fe25         O31   2.030   1_556  S
Fe25         O38   2.017       .  S
Fe25         O30   2.141       .  S
Fe25         O36   1.928       .  S
Fe26         O29   2.142       .  S
Fe26         O33   2.029       .  S
Fe26         O37   2.144       .  S
Fe26         O42   2.004       .  S
Fe26         O36   1.922       .  S
Fe27         O45   2.033       .  S
Fe27         O32   2.150       .  S
Fe27         O39   2.148   1_556  S
Fe27         O28   1.995       .  S
Fe27         O36   1.922       .  S
O28          C35   1.259       .  A
O29          C43   1.283       .  A
O30          C35   1.283       .  A
O31          C34   1.263       .  A
O32          C44   1.287       .  A
O33          C46   1.264       .  A
C34        C1093   1.486       .  S
C34          O39   1.285       .  A
C35        C1054   1.481       .  S
O37          C40   1.284       .  A
O38          C40   1.261       .  A
C40        C1390   1.480       .  S
O41          C46   1.283       .  A
O42          C44   1.261       .  A
C43        C1117   1.487       .  S
C43          O45   1.263       .  A
C44        C1069   1.491       .  S
C46        C1261   1.482       .  S
Fe47         O63   2.129       .  S
Fe47         O53   2.031       .  S
Fe47         O60   2.021       .  S
Fe47         O52   2.140       .  S
Fe47         O58   1.931       .  S
Fe48         O51   2.138       .  S
Fe48         O55   2.028       .  S
Fe48         O59   2.138       .  S
Fe48         O64   2.012       .  S
Fe48         O58   1.923       .  S
Fe49         O67   2.031       .  S
Fe49         O54   2.132       .  S
Fe49         O61   2.144       .  S
Fe49         O50   2.015       .  S
Fe49         O58   1.929       .  S
O50          C57   1.260       .  A
O51          C65   1.285       .  A
O52          C57   1.282       .  A
O53          C56   1.263       .  A
O54          C66   1.281       .  A
O55          C68   1.262       .  A
C56        C1021   1.489       .  S
C56          O61   1.284       .  A
C57        C1405   1.472       .  S
O59          C62   1.285       .  A
O60          C62   1.265       .  A
C62        C1318   1.485       .  S
O63          C68   1.281       .  A
O64          C66   1.260       .  A
C65        C1006   1.496       .  S
C65          O67   1.266       .  A
C66        C1189   1.479       .  S
C68         C973   1.493       .  S
Fe69         O85   2.130       .  S
Fe69         O75   2.041       .  S
Fe69         O82   2.012       .  S
Fe69         O74   2.135       .  S
Fe69         O80   1.929       .  S
Fe70         O73   2.141   1_565  S
Fe70         O77   2.031       .  S
Fe70         O81   2.132       .  S
Fe70         O86   2.014       .  S
Fe70         O80   1.923       .  S
Fe71         O89   2.037   1_565  S
Fe71         O76   2.133       .  S
Fe71         O83   2.131       .  S
Fe71         O72   1.999       .  S
Fe71         O80   1.933       .  S
O72          C79   1.261       .  A
O73          C87   1.285       .  A
O74          C79   1.285       .  A
O75          C78   1.263       .  A
O76          C88   1.280       .  A
O77          C90   1.268       .  A
C78        C1174   1.486       .  S
C78          O83   1.280       .  A
C79        C1294   1.475       .  S
O81          C84   1.281       .  A
O82          C84   1.260       .  A
C84         C901   1.484       .  S
O85          C90   1.283       .  A
O86          C88   1.260       .  A
C87         C949   1.484       .  S
C87          O89   1.267       .  A
C88         C925   1.486       .  S
C90         C886   1.493       .  S
C91          C92   1.414       .  A
C91          C96   1.392       .  A
C91        C1078   1.479       .  S
C92          C93   1.417       .  A
C92        C1030   1.492       .  S
C93          C94   1.417       .  A
C93          H98   1.084       .  S
C94          C95   1.415       .  A
C94         C958   1.493       .  S
C95          C96   1.393       .  A
C95         C853   1.477       .  S
C96          H97   1.087       .  S
Fe99        O115   2.139       .  S
Fe99        O105   2.034   1_545  S
Fe99        O112   1.999       .  S
Fe99        O104   2.142       .  S
Fe99        O110   1.930       .  S
Fe100       O103   2.137   1_556  S
Fe100       O107   2.027       .  S
Fe100       O111   2.138       .  S
Fe100       O116   1.997       .  S
Fe100       O110   1.925       .  S
Fe101       O119   2.024       .  S
Fe101       O106   2.130       .  S
Fe101       O113   2.131   1_545  S
Fe101       O102   2.009       .  S
Fe101       O110   1.928       .  S
O102        C109   1.260       .  A
O103        C117   1.284       .  A
O104        C109   1.283       .  A
O105        C108   1.265       .  A
O106        C118   1.280       .  A
O107        C120   1.263       .  A
C108       C1246   1.482       .  S
C108        O113   1.282       .  A
C109        C781   1.481       .  S
O111        C114   1.283       .  A
O112        C114   1.260       .  A
C114        C862   1.482       .  S
O115        C120   1.282       .  A
O116        C118   1.258       .  A
C117        C757   1.494       .  S
C117        O119   1.266   1_554  A
C118        C814   1.480       .  S
C120        C829   1.499       .  S
C121        C122   1.417       .  A
C121        C126   1.394       .  A
C121       C1045   1.475       .  S
C122        C123   1.417       .  A
C122        C838   1.504       .  S
C123        C124   1.419       .  A
C123        H128   1.084       .  S
C124        C125   1.419       .  A
C124        C718   1.494   1_556  S
C125        C126   1.391       .  A
C125        C742   1.486   1_556  S
C126        H127   1.088       .  S
C129        C130   1.413       .  A
C129        C134   1.415       .  A
C129        C694   1.493   1_545  S
C130        C131   1.392       .  A
C130        C934   1.478       .  S
C131        C132   1.394       .  A
C131        H136   1.087       .  S
C132        C133   1.419       .  A
C132        C790   1.486       .  S
C133        C134   1.421       .  A
C133        C670   1.496       .  S
C134        H135   1.084       .  S
C137        C138   1.411       .  A
C137        C142   1.391       .  A
C137        C637   1.478       .  S
C138        C139   1.417   1_455  A
C138        C574   1.488       .  S
C139        C140   1.419       .  A
C139        H144   1.084       .  S
C140        C141   1.417       .  A
C140        C589   1.495       .  S
C141        C142   1.393   1_655  A
C141        C613   1.479       .  S
C142        H143   1.087       .  S
C145        C146   1.416       .  A
C145        C150   1.417       .  A
C145        C982   1.493       .  S
C146        C147   1.392       .  A
C146        C910   1.481       .  S
C147        C148   1.392       .  A
C147        H152   1.087       .  S
C148        C149   1.415       .  A
C148        C550   1.474       .  S
C149        C150   1.415       .  A
C149        C526   1.498       .  S
C150        H151   1.083       .  S
C153        C154   1.414       .  A
C153        C158   1.417       .  A
C153       C1102   1.500       .  S
C154        C155   1.394       .  A
C154        C493   1.477       .  S
C155        C156   1.393       .  A
C155        H160   1.087       .  S
C156        C157   1.419       .  A
C156        C478   1.483       .  S
C157        C158   1.422       .  A
C157        C997   1.505       .  S
C158        H159   1.082       .  S
Fe161       O177   2.140   1_655  S
Fe161       O167   2.024       .  S
Fe161       O174   2.001       .  S
Fe161       O166   2.133       .  S
Fe161       O172   1.921       .  S
Fe162       O165   2.148       .  S
Fe162       O169   2.032       .  S
Fe162       O173   2.153       .  S
Fe162       O178   2.002       .  S
Fe162       O172   1.931       .  S
Fe163       O181   2.032       .  S
Fe163       O168   2.157       .  S
Fe163       O175   2.150       .  S
Fe163       O164   2.009       .  S
Fe163       O172   1.927       .  S
O164        C171   1.260       .  A
O165        C179   1.284       .  A
O166        C171   1.282       .  A
O167        C170   1.264       .  A
O168        C180   1.288       .  A
O169        C182   1.266   1_655  A
C170        C445   1.499       .  S
C170        O175   1.286       .  A
C171        C469   1.480       .  S
O173        C176   1.285       .  A
O174        C176   1.258       .  A
C176        C622   1.490       .  S
O177        C182   1.284       .  A
O178        C180   1.261       .  A
C179       C1366   1.492       .  S
C179        O181   1.262       .  A
C180       C1213   1.490       .  S
C182        C517   1.486       .  S
Fe183       O199   2.135       .  S
Fe183       O189   2.035   1_455  S
Fe183       O196   2.003       .  S
Fe183       O188   2.136       .  S
Fe183       O194   1.929       .  S
Fe184       O187   2.130   1_565  S
Fe184       O191   2.037       .  S
Fe184       O195   2.135       .  S
Fe184       O200   2.007       .  S
Fe184       O194   1.926       .  S
Fe185       O203   2.022   1_565  S
Fe185       O190   2.144       .  S
Fe185       O197   2.147   1_455  S
Fe185       O186   2.018       .  S
Fe185       O194   1.921       .  S
O186        C193   1.260       .  A
O187        C201   1.282       .  A
O188        C193   1.281       .  A
O189        C192   1.267       .  A
O190        C202   1.284       .  A
O191        C204   1.262       .  A
C192       C1150   1.487       .  S
C192        O197   1.286       .  A
C193        C646   1.474       .  S
O195        C198   1.285       .  A
O196        C198   1.263       .  A
C198        C541   1.482       .  S
O199        C204   1.280       .  A
O200        C202   1.260       .  A
C201        C397   1.492       .  S
C201        O203   1.264       .  A
C202        C430   1.489       .  S
C204        C685   1.487       .  S
Fe205       O221   2.141   1_554  S
Fe205       O211   2.038   1_655  S
Fe205       O218   2.026       .  S
Fe205       O210   2.142       .  S
Fe205       O216   1.929       .  S
Fe206       O209   2.138       .  S
Fe206       O213   2.025   1_554  S
Fe206       O217   2.134       .  S
Fe206       O222   2.015       .  S
Fe206       O216   1.923       .  S
Fe207       O225   2.037       .  S
Fe207       O212   2.134       .  S
Fe207       O219   2.128   1_655  S
Fe207       O208   2.012       .  S
Fe207       O216   1.931       .  S
O208        C215   1.263       .  A
O209        C223   1.283       .  A
O210        C215   1.285       .  A
O211        C214   1.264       .  A
O212        C224   1.281       .  A
O213        C226   1.265       .  A
C214        C349   1.485       .  S
C214        O219   1.280       .  A
C215        C382   1.483       .  S
O217        C220   1.281       .  A
O218        C220   1.263       .  A
C220        C733   1.486       .  S
O221        C226   1.285       .  A
O222        C224   1.261       .  A
C223        C598   1.485       .  S
C223        O225   1.266       .  A
C224        C502   1.487       .  S
C226       C1342   1.495       .  S
C227        C228   1.418       .  A
C227        C232   1.416       .  A
C227        C877   1.499       .  S
C228        C229   1.392       .  A
C228        C421   1.481       .  S
C229        C230   1.393   1_565  A
C229        H234   1.088       .  S
C230        C231   1.418       .  A
C230        C334   1.481       .  S
C231        C232   1.417   1_545  A
C231        C766   1.497       .  S
C232        H233   1.084       .  S
Fe235       O251   2.126   1_455  S
Fe235       O241   2.035   1_545  S
Fe235       O248   2.010       .  S
Fe235       O240   2.141       .  S
Fe235       O246   1.933       .  S
Fe236       O239   2.140   1_554  S
Fe236       O243   2.031   1_455  S
Fe236       O247   2.137       .  S
Fe236       O252   2.015       .  S
Fe236       O246   1.920       .  S
Fe237       O255   2.031       .  S
Fe237       O242   2.128       .  S
Fe237       O249   2.137   1_545  S
Fe237       O238   2.011       .  S
Fe237       O246   1.928       .  S
O238        C245   1.261       .  A
O239        C253   1.286       .  A
O240        C245   1.283       .  A
O241        C244   1.263       .  A
O242        C254   1.279       .  A
O243        C256   1.263       .  A
C244        C565   1.483       .  S
C244        O249   1.282       .  A
C245        C325   1.476       .  S
O247        C250   1.285       .  A
O248        C250   1.263       .  A
C250        C310   1.479       .  S
O251        C256   1.279       .  A
O252        C254   1.260       .  A
C253        C661   1.501       .  S
C253        O255   1.268   1_556  A
C254        C286   1.485       .  S
C256        C709   1.494       .  S
C257        C258   1.418       .  A
C257        C262   1.415       .  A
C257        C454   1.502   1_455  S
C258        C259   1.397       .  A
C258        C373   1.478   1_455  S
C259        C260   1.394       .  A
C259        H264   1.087       .  S
C260        C261   1.416       .  A
C260        C301   1.483       .  S
C261        C262   1.417       .  A
C261        C406   1.495       .  S
C262        H263   1.083       .  S
C265        C266   1.418       .  A
C265        C270   1.393       .  A
C265        C805   1.476   1_554  S
C266        C267   1.418       .  A
C266       C1126   1.499   1_554  S
C267        C268   1.416       .  A
C267        H272   1.084       .  S
C268        C269   1.412       .  A
C268        C358   1.487       .  S
C269        C270   1.390       .  A
C269        C277   1.478       .  S
C270        H271   1.087       .  S
C273        C274   1.401       .  A
C273        C278   1.399       .  A
C273        H283   1.084   1_554  S
C274        C275   1.408       .  A
C274        C279   1.483       .  S
C275        C276   1.403       .  A
C275        O280   1.372       .  S
C276        C277   1.405       .  A
C276        H281   1.084       .  S
C277        C278   1.410       .  A
C278        O282   1.372   1_554  S
C279        C284   1.402       .  A
C279        C288   1.409       .  A
O280        H296   0.992       .  S
O282        H293   0.992       .  S
C284        C285   1.395       .  A
C284        O289   1.372       .  S
C285        C286   1.410       .  A
C285        H290   1.084       .  S
C286        C287   1.409       .  A
C287        C288   1.407       .  A
C287        O291   1.371       .  S
C288        H292   1.084       .  S
O289        H294   0.992       .  S
O291        H295   0.992   1_554  S
C297        C298   1.405       .  A
C297        C302   1.401       .  A
C297        H307   1.083       .  S
C298        C299   1.413   1_455  A
C298        C303   1.493       .  S
C299        C300   1.403       .  A
C299        O304   1.372       .  S
C300        C301   1.404   1_655  A
C300        H305   1.084       .  S
C301        C302   1.410       .  A
C302        O306   1.372       .  S
C303        C308   1.417       .  A
C303        C312   1.401       .  A
O304        H320   0.992       .  S
O306        H317   0.992       .  S
C308        C309   1.406       .  A
C308        O313   1.371       .  S
C309        C310   1.401       .  A
C309        H314   1.084       .  S
C310        C311   1.413       .  A
C311        C312   1.398       .  A
C311        O315   1.373   1_455  S
C312        H316   1.083   1_455  S
O313        H318   0.992       .  S
O315        H319   0.992   1_655  S
C321        C322   1.404       .  A
C321        C326   1.393       .  A
C321        H331   1.083       .  S
C322        C323   1.417   1_545  A
C322        C327   1.496       .  S
C323        C324   1.411   1_565  A
C323        O328   1.373       .  S
C324        C325   1.403       .  A
C324        H329   1.083   1_545  S
C325        C326   1.409       .  A
C326        O330   1.372       .  S
C327        C332   1.416   1_545  A
C327        C336   1.404       .  A
O328        H344   0.992       .  S
O330        H341   0.992       .  S
C332        C333   1.407       .  A
C332        O337   1.370       .  S
C333        C334   1.402   1_565  A
C333        H338   1.083       .  S
C334        C335   1.410       .  A
C335        C336   1.395       .  A
C335        O339   1.373       .  S
C336        H340   1.083       .  S
O337        H342   0.992       .  S
O339        H343   0.991       .  S
C345        C346   1.405       .  A
C345        C350   1.401       .  A
C345        H355   1.083       .  S
C346        C347   1.414       .  A
C346        C351   1.497       .  S
C347        C348   1.408       .  A
C347        O352   1.372       .  S
C348        C349   1.406       .  A
C348        H353   1.083       .  S
C349        C350   1.410       .  A
C350        O354   1.373       .  S
C351        C356   1.414       .  A
C351        C360   1.407       .  A
O352        H368   0.992       .  S
O354        H365   0.992   1_554  S
C356        C357   1.401       .  A
C356        O361   1.372   1_554  S
C357        C358   1.400       .  A
C357        H362   1.081   1_554  S
C358        C359   1.408       .  A
C359        C360   1.406       .  A
C359        O363   1.371       .  S
C360        H364   1.083       .  S
O361        H366   0.992   1_556  S
O363        H367   0.992       .  S
C369        C370   1.407   1_455  A
C369        C374   1.405       .  A
C369        H379   1.083       .  S
C370        C371   1.409       .  A
C370        C375   1.488       .  S
C371        C372   1.398       .  A
C371        O376   1.373       .  S
C372        C373   1.403       .  A
C372        H377   1.084       .  S
C373        C374   1.407   1_655  A
C374        O378   1.371       .  S
C375        C380   1.405       .  A
C375        C384   1.410   1_655  A
O376        H392   0.992       .  S
O378        H389   0.992       .  S
C380        C381   1.394       .  A
C380        O385   1.372       .  S
C381        C382   1.408       .  A
C381        H386   1.084       .  S
C382        C383   1.408       .  A
C383        C384   1.410   1_655  A
C383        O387   1.371   1_655  S
C384        H388   1.083       .  S
O385        H390   0.992       .  S
O387        H391   0.992       .  S
C393        C394   1.410       .  A
C393        C398   1.410       .  A
C393        H403   1.083       .  S
C394        C395   1.407       .  A
C394        C399   1.493       .  S
C395        C396   1.396       .  A
C395        O400   1.374   1_455  S
C396        C397   1.409       .  A
C396        H401   1.084   1_455  S
C397        C398   1.411       .  A
C398        O402   1.371       .  S
C399        C404   1.411       .  A
C399        C408   1.406       .  A
O400        H416   0.992       .  S
O402        H413   0.992       .  S
C404        C405   1.399       .  A
C404        O409   1.371   1_455  S
C405        C406   1.405       .  A
C405        H410   1.083   1_455  S
C406        C407   1.412       .  A
C407        C408   1.404       .  A
C407        O411   1.369       .  S
C408        H412   1.083       .  S
O409        H414   0.992       .  S
O411        H415   0.992       .  S
C417        C418   1.407   1_545  A
C417        C422   1.403       .  A
C417        H427   1.083       .  S
C418        C419   1.407       .  A
C418        C423   1.489       .  S
C419        C420   1.401       .  A
C419        O424   1.371       .  S
C420        C421   1.407       .  A
C420        H425   1.084       .  S
C421        C422   1.408   1_565  A
C422        O426   1.372       .  S
C423        C428   1.402       .  A
C423        C432   1.412       .  A
O424        H440   0.992       .  S
O426        H437   0.992       .  S
C428        C429   1.395       .  A
C428        O433   1.373       .  S
C429        C430   1.411       .  A
C429        H434   1.084       .  S
C430        C431   1.407       .  A
C431        C432   1.411       .  A
C431        O435   1.371       .  S
C432        H436   1.083       .  S
O433        H438   0.992   1_565  S
O435        H439   0.992       .  S
C441        C442   1.403       .  A
C441        C446   1.398       .  A
C441        H451   1.083   1_655  S
C442        C443   1.416       .  A
C442        C447   1.504       .  S
C443        C444   1.416       .  A
C443        O448   1.373       .  S
C444        C445   1.407       .  A
C444        H449   1.083       .  S
C445        C446   1.417       .  A
C446        O450   1.372   1_655  S
C447        C452   1.414       .  A
C447        C456   1.408   1_655  A
O448        H464   0.992       .  S
O450        H461   0.992       .  S
C452        C453   1.408       .  A
C452        O457   1.371       .  S
C453        C454   1.407       .  A
C453        H458   1.082       .  S
C454        C455   1.413   1_655  A
C455        C456   1.403       .  A
C455        O459   1.372       .  S
C456        H460   1.083       .  S
O457        H462   0.992       .  S
O459        H463   0.992       .  S
C465        C466   1.412       .  A
C465        C470   1.408       .  A
C465        H475   1.083       .  S
C466        C467   1.407       .  A
C466        C471   1.493       .  S
C467        C468   1.396       .  A
C467        O472   1.372       .  S
C468        C469   1.407       .  A
C468        H473   1.084       .  S
C469        C470   1.406       .  A
C470        O474   1.371       .  S
C471        C476   1.411       .  A
C471        C480   1.407       .  A
O472        H488   0.992       .  S
O474        H485   0.991       .  S
C476        C477   1.404       .  A
C476        O481   1.372       .  S
C477        C478   1.404       .  A
C477        H482   1.084       .  S
C478        C479   1.407       .  A
C479        C480   1.400       .  A
C479        O483   1.371       .  S
C480        H484   1.083       .  S
O481        H486   0.992       .  S
O483        H487   0.992       .  S
C489        C490   1.405       .  A
C489        C494   1.402       .  A
C489        H499   1.084       .  S
C490        C491   1.412       .  A
C490        C495   1.489       .  S
C491        C492   1.402       .  A
C491        O496   1.373       .  S
C492        C493   1.401       .  A
C492        H497   1.084       .  S
C493        C494   1.408       .  A
C494        O498   1.372       .  S
C495        C500   1.405       .  A
C495        C504   1.410       .  A
O496        H512   0.992       .  S
O498        H509   0.992       .  S
C500        C501   1.394       .  A
C500        O505   1.372       .  S
C501        C502   1.409       .  A
C501        H506   1.084       .  S
C502        C503   1.409       .  A
C503        C504   1.408       .  A
C503        O507   1.371       .  S
C504        H508   1.083       .  S
O505        H510   0.992       .  S
O507        H511   0.992       .  S
C513        C514   1.403       .  A
C513        C518   1.400       .  A
C513        H523   1.084       .  S
C514        C515   1.411       .  A
C514        C519   1.492       .  S
C515        C516   1.409       .  A
C515        O520   1.371       .  S
C516        C517   1.406       .  A
C516        H521   1.084       .  S
C517        C518   1.412       .  A
C518        O522   1.372       .  S
C519        C524   1.410       .  A
C519        C528   1.404       .  A
O520        H536   0.992       .  S
O522        H533   0.992       .  S
C524        C525   1.402       .  A
C524        O529   1.372       .  S
C525        C526   1.405       .  A
C525        H530   1.081       .  S
C526        C527   1.414       .  A
C527        C528   1.406       .  A
C527        O531   1.371       .  S
C528        H532   1.083       .  S
O529        H534   0.992       .  S
O531        H535   0.992       .  S
C537        C538   1.411       .  A
C537        C542   1.407       .  A
C537        H547   1.083       .  S
C538        C539   1.403       .  A
C538        C543   1.484       .  S
C539        C540   1.393       .  A
C539        O544   1.373       .  S
C540        C541   1.409       .  A
C540        H545   1.084       .  S
C541        C542   1.406       .  A
C542        O546   1.371       .  S
C543        C548   1.411       .  A
C543        C552   1.403       .  A
O544        H560   0.992       .  S
O546        H557   0.992       .  S
C548        C549   1.400       .  A
C548        O553   1.372       .  S
C549        C550   1.402       .  A
C549        H554   1.084       .  S
C550        C551   1.408       .  A
C551        C552   1.398       .  A
C551        O555   1.372       .  S
C552        H556   1.084       .  S
O553        H558   0.992       .  S
O555        H559   0.992       .  S
C561        C562   1.405       .  A
C561        C566   1.404       .  A
C561        H571   1.083       .  S
C562        C563   1.412       .  A
C562        C567   1.495       .  S
C563        C564   1.406       .  A
C563        O568   1.372       .  S
C564        C565   1.405       .  A
C564        H569   1.083       .  S
C565        C566   1.410       .  A
C566        O570   1.371       .  S
C567        C572   1.414       .  A
C567        C576   1.404       .  A
O568        H584   0.992       .  S
O570        H581   0.992       .  S
C572        C573   1.407   1_455  A
C572        O577   1.372   1_455  S
C573        C574   1.403   1_655  A
C573        H578   1.083       .  S
C574        C575   1.408       .  A
C575        C576   1.404       .  A
C575        O579   1.371       .  S
C576        H580   1.083       .  S
O577        H582   0.992       .  S
O579        H583   0.992       .  S
C585        C586   1.406       .  A
C585        C590   1.409       .  A
C585        H595   1.083       .  S
C586        C587   1.412       .  A
C586        C591   1.497       .  S
C587        C588   1.402   1_655  A
C587        O592   1.372   1_655  S
C588        C589   1.403   1_455  A
C588        H593   1.082       .  S
C589        C590   1.412       .  A
C590        O594   1.371       .  S
C591        C596   1.412       .  A
C591        C600   1.405       .  A
O592        H608   0.992   1_455  S
O594        H605   0.992       .  S
C596        C597   1.409       .  A
C596        O601   1.371       .  S
C597        C598   1.405       .  A
C597        H602   1.083       .  S
C598        C599   1.410       .  A
C599        C600   1.402       .  A
C599        O603   1.371       .  S
C600        H604   1.084       .  S
O601        H606   0.992       .  S
O603        H607   0.992       .  S
C609        C610   1.405   1_455  A
C609        C614   1.403       .  A
C609        H619   1.083       .  S
C610        C611   1.413       .  A
C610        C615   1.494       .  S
C611        C612   1.403       .  A
C611        O616   1.373       .  S
C612        C613   1.402       .  A
C612        H617   1.084       .  S
C613        C614   1.409   1_655  A
C614        O618   1.372       .  S
C615        C620   1.405       .  A
C615        C624   1.413       .  A
O616        H632   0.992       .  S
O618        H629   0.992       .  S
C620        C621   1.394       .  A
C620        O625   1.372       .  S
C621        C622   1.411       .  A
C621        H626   1.084       .  S
C622        C623   1.408       .  A
C623        C624   1.412       .  A
C623        O627   1.371   1_655  S
C624        H628   1.083   1_655  S
O625        H630   0.992       .  S
O627        H631   0.992   1_455  S
C633        C634   1.405   1_655  A
C633        C638   1.399       .  A
C633        H643   1.083       .  S
C634        C635   1.413       .  A
C634        C639   1.492       .  S
C635        C636   1.405       .  A
C635        O640   1.371       .  S
C636        C637   1.403       .  A
C636        H641   1.084       .  S
C637        C638   1.408   1_455  A
C638        O642   1.373       .  S
C639        C644   1.408       .  A
C639        C648   1.411       .  A
O640        H656   0.992       .  S
O642        H653   0.992       .  S
C644        C645   1.398       .  A
C644        O649   1.372   1_455  S
C645        C646   1.403       .  A
C645        H650   1.084   1_455  S
C646        C647   1.406       .  A
C647        C648   1.408       .  A
C647        O651   1.371       .  S
C648        H652   1.083       .  S
O649        H654   0.992       .  S
O651        H655   0.992       .  S
C657        C658   1.409       .  A
C657        C662   1.413       .  A
C657        H667   1.083       .  S
C658        C659   1.405       .  A
C658        C663   1.493       .  S
C659        C660   1.397       .  A
C659        O664   1.373       .  S
C660        C661   1.411       .  A
C660        H665   1.083       .  S
C661        C662   1.414       .  A
C662        O666   1.371       .  S
C663        C668   1.410       .  A
C663        C672   1.406       .  A
O664        H680   0.992   1_545  S
O666        H677   0.992       .  S
C668        C669   1.400       .  A
C668        O673   1.371   1_545  S
C669        C670   1.405       .  A
C669        H674   1.083   1_545  S
C670        C671   1.413       .  A
C671        C672   1.407       .  A
C671        O675   1.371       .  S
C672        H676   1.083       .  S
O673        H678   0.992   1_565  S
O675        H679   0.992       .  S
C681        C682   1.409       .  A
C681        C686   1.408       .  A
C681        H691   1.083       .  S
C682        C683   1.413       .  A
C682        C687   1.502       .  S
C683        C684   1.403       .  A
C683        O688   1.372   1_565  S
C684        C685   1.406       .  A
C684        H689   1.084       .  S
C685        C686   1.410       .  A
C686        O690   1.371       .  S
C687        C692   1.412       .  A
C687        C696   1.408   1_565  A
O688        H704   0.992       .  S
O690        H701   0.992       .  S
C692        C693   1.410       .  A
C692        O697   1.372       .  S
C693        C694   1.406       .  A
C693        H698   1.083       .  S
C694        C695   1.407   1_565  A
C695        C696   1.405       .  A
C695        O699   1.372       .  S
C696        H700   1.083       .  S
O697        H702   0.992       .  S
O699        H703   0.992       .  S
C705        C706   1.410       .  A
C705        C710   1.409       .  A
C705        H715   1.083       .  S
C706        C707   1.409       .  A
C706        C711   1.497       .  S
C707        C708   1.398       .  A
C707        O712   1.373   1_554  S
C708        C709   1.408       .  A
C708        H713   1.084   1_554  S
C709        C710   1.412       .  A
C710        O714   1.371       .  S
C711        C716   1.412   1_554  A
C711        C720   1.408       .  A
O712        H728   0.992       .  S
O714        H725   0.992       .  S
C716        C717   1.400       .  A
C716        O721   1.371       .  S
C717        C718   1.406   1_556  A
C717        H722   1.084       .  S
C718        C719   1.411       .  A
C719        C720   1.406       .  A
C719        O723   1.370       .  S
C720        H724   1.083       .  S
O721        H726   0.992       .  S
O723        H727   0.992       .  S
C729        C730   1.401       .  A
C729        C734   1.396       .  A
C729        H739   1.084       .  S
C730        C731   1.415   1_554  A
C730        C735   1.492       .  S
C731        C732   1.412       .  A
C731        O736   1.372       .  S
C732        C733   1.405   1_556  A
C732        H737   1.083       .  S
C733        C734   1.412       .  A
C734        O738   1.372       .  S
C735        C740   1.412   1_554  A
C735        C744   1.402       .  A
O736        H752   0.992       .  S
O738        H749   0.992       .  S
C740        C741   1.409       .  A
C740        O745   1.371       .  S
C741        C742   1.405   1_556  A
C741        H746   1.083       .  S
C742        C743   1.412       .  A
C743        C744   1.399       .  A
C743        O747   1.373       .  S
C744        H748   1.084       .  S
O745        H750   0.992       .  S
O747        H751   0.991       .  S
C753        C754   1.410       .  A
C753        C758   1.411       .  A
C753        H763   1.083       .  S
C754        C755   1.408       .  A
C754        C759   1.496       .  S
C755        C756   1.397       .  A
C755        O760   1.374   1_545  S
C756        C757   1.409       .  A
C756        H761   1.084   1_545  S
C757        C758   1.412       .  A
C758        O762   1.371       .  S
C759        C764   1.411       .  A
C759        C768   1.407       .  A
O760        H776   0.992       .  S
O762        H773   0.992       .  S
C764        C765   1.399   1_545  A
C764        O769   1.371   1_545  S
C765        C766   1.406   1_565  A
C765        H770   1.084       .  S
C766        C767   1.413       .  A
C767        C768   1.407       .  A
C767        O771   1.370       .  S
C768        H772   1.083       .  S
O769        H774   0.992       .  S
O771        H775   0.992       .  S
C777        C778   1.411       .  A
C777        C782   1.409       .  A
C777        H787   1.083       .  S
C778        C779   1.405       .  A
C778        C783   1.490       .  S
C779        C780   1.398       .  A
C779        O784   1.373       .  S
C780        C781   1.408       .  A
C780        H785   1.084       .  S
C781        C782   1.406       .  A
C782        O786   1.371   1_545  S
C783        C788   1.409       .  A
C783        C792   1.406       .  A
O784        H800   0.992       .  S
O786        H797   0.992       .  S
C788        C789   1.400       .  A
C788        O793   1.372       .  S
C789        C790   1.407       .  A
C789        H794   1.084       .  S
C790        C791   1.407       .  A
C791        C792   1.405       .  A
C791        O795   1.371   1_545  S
C792        H796   1.083       .  S
O793        H798   0.992       .  S
O795        H799   0.992   1_565  S
C801        C802   1.403   1_554  A
C801        C806   1.398       .  A
C801        H811   1.084       .  S
C802        C803   1.413       .  A
C802        C807   1.487       .  S
C803        C804   1.402       .  A
C803        O808   1.373       .  S
C804        C805   1.400       .  A
C804        H809   1.084       .  S
C805        C806   1.410   1_556  A
C806        O810   1.373       .  S
C807        C812   1.404       .  A
C807        C816   1.413       .  A
O808        H824   0.992       .  S
O810        H821   0.992       .  S
C812        C813   1.390       .  A
C812        O817   1.372       .  S
C813        C814   1.409       .  A
C813        H818   1.084       .  S
C814        C815   1.406       .  A
C815        C816   1.408       .  A
C815        O819   1.371   1_556  S
C816        H820   1.083   1_556  S
O817        H822   0.992       .  S
O819        H823   0.992       .  S
C825        C826   1.411       .  A
C825        C830   1.411       .  A
C825        H835   1.083       .  S
C826        C827   1.409       .  A
C826        C831   1.500       .  S
C827        C828   1.399       .  A
C827        O832   1.373   1_556  S
C828        C829   1.410       .  A
C828        H833   1.083       .  S
C829        C830   1.412       .  A
C830        O834   1.371       .  S
C831        C836   1.412       .  A
C831        C840   1.406       .  A
O832        H848   0.992       .  S
O834        H845   0.992       .  S
C836        C837   1.402       .  A
C836        O841   1.371   1_556  S
C837        C838   1.408       .  A
C837        H842   1.083   1_556  S
C838        C839   1.414       .  A
C839        C840   1.406       .  A
C839        O843   1.369       .  S
C840        H844   1.083       .  S
O841        H846   0.992   1_554  S
O843        H847   0.992       .  S
C849        C850   1.404       .  A
C849        C854   1.401       .  A
C849        H859   1.084       .  S
C850        C851   1.411       .  A
C850        C855   1.487       .  S
C851        C852   1.403       .  A
C851        O856   1.373       .  S
C852        C853   1.403       .  A
C852        H857   1.084       .  S
C853        C854   1.409       .  A
C854        O858   1.372       .  S
C855        C860   1.404       .  A
C855        C864   1.412       .  A
O856        H872   0.992       .  S
O858        H869   0.992       .  S
C860        C861   1.392       .  A
C860        O865   1.372       .  S
C861        C862   1.409       .  A
C861        H866   1.085       .  S
C862        C863   1.406       .  A
C863        C864   1.409       .  A
C863        O867   1.371       .  S
C864        H868   1.083       .  S
O865        H870   0.992       .  S
O867        H871   0.992       .  S
C873        C874   1.407       .  A
C873        C878   1.404       .  A
C873        H883   1.083       .  S
C874        C875   1.412       .  A
C874        C879   1.499       .  S
C875        C876   1.405   1_565  A
C875        O880   1.374   1_565  S
C876        C877   1.407   1_545  A
C876        H881   1.083       .  S
C877        C878   1.411       .  A
C878        O882   1.370       .  S
C879        C884   1.410       .  A
C879        C888   1.411       .  A
O880        H896   0.992       .  S
O882        H893   0.992       .  S
C884        C885   1.396       .  A
C884        O889   1.371   1_565  S
C885        C886   1.407       .  A
C885        H890   1.084   1_565  S
C886        C887   1.412       .  A
C887        C888   1.410       .  A
C887        O891   1.371       .  S
C888        H892   1.083       .  S
O889        H894   0.992       .  S
O891        H895   0.992       .  S
C897        C898   1.400       .  A
C897        C902   1.394       .  A
C897        H907   1.084       .  S
C898        C899   1.417       .  A
C898        C903   1.493       .  S
C899        C900   1.412       .  A
C899        O904   1.372       .  S
C900        C901   1.403       .  A
C900        H905   1.083       .  S
C901        C902   1.414       .  A
C902        O906   1.372       .  S
C903        C908   1.412       .  A
C903        C912   1.406       .  A
O904        H920   0.992       .  S
O906        H917   0.991       .  S
C908        C909   1.405       .  A
C908        O913   1.371       .  S
C909        C910   1.404       .  A
C909        H914   1.084       .  S
C910        C911   1.408       .  A
C911        C912   1.399       .  A
C911        O915   1.372       .  S
C912        H916   1.083       .  S
O913        H918   0.992       .  S
O915        H919   0.992       .  S
C921        C922   1.411       .  A
C921        C926   1.407       .  A
C921        H931   1.083   1_565  S
C922        C923   1.404       .  A
C922        C927   1.489       .  S
C923        C924   1.397       .  A
C923        O928   1.373       .  S
C924        C925   1.410       .  A
C924        H929   1.084       .  S
C925        C926   1.407       .  A
C926        O930   1.371   1_565  S
C927        C932   1.412       .  A
C927        C936   1.403   1_565  A
O928        H944   0.992       .  S
O930        H941   0.992       .  S
C932        C933   1.403       .  A
C932        O937   1.372       .  S
C933        C934   1.404   1_565  A
C933        H938   1.084       .  S
C934        C935   1.409       .  A
C935        C936   1.399       .  A
C935        O939   1.372       .  S
C936        H940   1.084       .  S
O937        H942   0.992       .  S
O939        H943   0.992       .  S
C945        C946   1.405       .  A
C945        C950   1.404       .  A
C945        H955   1.084       .  S
C946        C947   1.410       .  A
C946        C951   1.493       .  S
C947        C948   1.408       .  A
C947        O952   1.371       .  S
C948        C949   1.407       .  A
C948        H953   1.084       .  S
C949        C950   1.409       .  A
C950        O954   1.372       .  S
C951        C956   1.410       .  A
C951        C960   1.405       .  A
O952        H968   0.992       .  S
O954        H965   0.992       .  S
C956        C957   1.403       .  A
C956        O961   1.372       .  S
C957        C958   1.403       .  A
C957        H962   1.081       .  S
C958        C959   1.412       .  A
C959        C960   1.408       .  A
C959        O963   1.371       .  S
C960        H964   1.083       .  S
O961        H966   0.992       .  S
O963        H967   0.992       .  S
C969        C970   1.403       .  A
C969        C974   1.397       .  A
C969        H979   1.083       .  S
C970        C971   1.414       .  A
C970        C975   1.498       .  S
C971        C972   1.411       .  A
C971        O976   1.373       .  S
C972        C973   1.406       .  A
C972        H977   1.083       .  S
C973        C974   1.416       .  A
C974        O978   1.372       .  S
C975        C980   1.414       .  A
C975        C984   1.408       .  A
O976        H992   0.992       .  S
O978        H989   0.992       .  S
C980        C981   1.403       .  A
C980        O985   1.371       .  S
C981        C982   1.404       .  A
C981        H986   1.082       .  S
C982        C983   1.411       .  A
C983        C984   1.402       .  A
C983        O987   1.372       .  S
C984        H988   1.083       .  S
O985        H990   0.992       .  S
O987        H991   0.992       .  S
C993        C994   1.409       .  A
C993        C998   1.404       .  A
C993       H1003   1.083       .  S
C994        C995   1.412       .  A
C994        C999   1.504       .  S
C995        C996   1.407       .  A
C995       O1000   1.373       .  S
C996        C997   1.408       .  A
C996       H1001   1.081       .  S
C997        C998   1.413       .  A
C998       O1002   1.371       .  S
C999       C1004   1.417       .  A
C999       C1008   1.404       .  A
O1000      H1016   0.992       .  S
O1002      H1013   0.992       .  S
C1004      C1005   1.411       .  A
C1004      O1009   1.371       .  S
C1005      C1006   1.406       .  A
C1005      H1010   1.083       .  S
C1006      C1007   1.416       .  A
C1007      C1008   1.398       .  A
C1007      O1011   1.372       .  S
C1008      H1012   1.083       .  S
O1009      H1014   0.992       .  S
O1011      H1015   0.992       .  S
C1017      C1018   1.402       .  A
C1017      C1022   1.400       .  A
C1017      H1027   1.084       .  S
C1018      C1019   1.410       .  A
C1018      C1023   1.492       .  S
C1019      C1020   1.409       .  A
C1019      O1024   1.372       .  S
C1020      C1021   1.407       .  A
C1020      H1025   1.081       .  S
C1021      C1022   1.413       .  A
C1022      O1026   1.372       .  S
C1023      C1028   1.411       .  A
C1023      C1032   1.405       .  A
O1024      H1040   0.992       .  S
O1026      H1037   0.991       .  S
C1028      C1029   1.401       .  A
C1028      O1033   1.372       .  S
C1029      C1030   1.403       .  A
C1029      H1034   1.081       .  S
C1030      C1031   1.412       .  A
C1031      C1032   1.407       .  A
C1031      O1035   1.371       .  S
C1032      H1036   1.083       .  S
O1033      H1038   0.992       .  S
O1035      H1039   0.992       .  S
C1041      C1042   1.405       .  A
C1041      C1046   1.404       .  A
C1041      H1051   1.083   1_556  S
C1042      C1043   1.407       .  A
C1042      C1047   1.482       .  S
C1043      C1044   1.396       .  A
C1043      O1048   1.373       .  S
C1044      C1045   1.404       .  A
C1044      H1049   1.084       .  S
C1045      C1046   1.408       .  A
C1046      O1050   1.372   1_556  S
C1047      C1052   1.402       .  A
C1047      C1056   1.410       .  A
O1048      H1064   0.992       .  S
O1050      H1061   0.992       .  S
C1052      C1053   1.389       .  A
C1052      O1057   1.372       .  S
C1053      C1054   1.409       .  A
C1053      H1058   1.084       .  S
C1054      C1055   1.408       .  A
C1055      C1056   1.410       .  A
C1055      O1059   1.371   1_556  S
C1056      H1060   1.083   1_556  S
O1057      H1062   0.992       .  S
O1059      H1063   0.992       .  S
C1065      C1066   1.410       .  A
C1065      C1070   1.408       .  A
C1065      H1075   1.083       .  S
C1066      C1067   1.402       .  A
C1066      C1071   1.487       .  S
C1067      C1068   1.397       .  A
C1067      O1072   1.373       .  S
C1068      C1069   1.413       .  A
C1068      H1073   1.083       .  S
C1069      C1070   1.407       .  A
C1070      O1074   1.370       .  S
C1071      C1076   1.411       .  A
C1071      C1080   1.402       .  A
O1072      H1088   0.992       .  S
O1074      H1085   0.992       .  S
C1076      C1077   1.404       .  A
C1076      O1081   1.372       .  S
C1077      C1078   1.403       .  A
C1077      H1082   1.084       .  S
C1078      C1079   1.408       .  A
C1079      C1080   1.400       .  A
C1079      O1083   1.373       .  S
C1080      H1084   1.084       .  S
O1081      H1086   0.992       .  S
O1083      H1087   0.992       .  S
C1089      C1090   1.404       .  A
C1089      C1094   1.404       .  A
C1089      H1099   1.084       .  S
C1090      C1091   1.412       .  A
C1090      C1095   1.496       .  S
C1091      C1092   1.411       .  A
C1091      O1096   1.371       .  S
C1092      C1093   1.407       .  A
C1092      H1097   1.083       .  S
C1093      C1094   1.411       .  A
C1094      O1098   1.371       .  S
C1095      C1100   1.411       .  A
C1095      C1104   1.404       .  A
O1096      H1112   0.992       .  S
O1098      H1109   0.992       .  S
C1100      C1101   1.406       .  A
C1100      O1105   1.371       .  S
C1101      C1102   1.405       .  A
C1101      H1106   1.083       .  S
C1102      C1103   1.414       .  A
C1103      C1104   1.408       .  A
C1103      O1107   1.371       .  S
C1104      H1108   1.083       .  S
O1105      H1110   0.992       .  S
O1107      H1111   0.992       .  S
C1113      C1114   1.407       .  A
C1113      C1118   1.411       .  A
C1113      H1123   1.083       .  S
C1114      C1115   1.409       .  A
C1114      C1119   1.494       .  S
C1115      C1116   1.401       .  A
C1115      O1120   1.371   1_556  S
C1116      C1117   1.406       .  A
C1116      H1121   1.084       .  S
C1117      C1118   1.412       .  A
C1118      O1122   1.371       .  S
C1119      C1124   1.408       .  A
C1119      C1128   1.405       .  A
O1120      H1136   0.992       .  S
O1122      H1133   0.991       .  S
C1124      C1125   1.408       .  A
C1124      O1129   1.371       .  S
C1125      C1126   1.409       .  A
C1125      H1130   1.083       .  S
C1126      C1127   1.412   1_556  A
C1127      C1128   1.402   1_554  A
C1127      O1131   1.370       .  S
C1128      H1132   1.084   1_556  S
O1129      H1134   0.992       .  S
O1131      H1135   0.992       .  S
C1137      C1138   1.406       .  A
C1137      C1142   1.403       .  A
C1137      H1147   1.083       .  S
C1138      C1139   1.410       .  A
C1138      C1143   1.497       .  S
C1139      C1140   1.409       .  A
C1139      O1144   1.371       .  S
C1140      C1141   1.408       .  A
C1140      H1145   1.083       .  S
C1141      C1142   1.409       .  A
C1142      O1146   1.371       .  S
C1143      C1148   1.409       .  A
C1143      C1152   1.408       .  A
O1144      H1160   0.992       .  S
O1146      H1157   0.992       .  S
C1148      C1149   1.404       .  A
C1148      O1153   1.373       .  S
C1149      C1150   1.406       .  A
C1149      H1154   1.084       .  S
C1150      C1151   1.411       .  A
C1151      C1152   1.410       .  A
C1151      O1155   1.372       .  S
C1152      H1156   1.083       .  S
O1153      H1158   0.992       .  S
O1155      H1159   0.992       .  S
C1161      C1162   1.409       .  A
C1161      C1166   1.407       .  A
C1161      H1171   1.083       .  S
C1162      C1163   1.416       .  A
C1162      C1167   1.504       .  S
C1163      C1164   1.405       .  A
C1163      O1168   1.371       .  S
C1164      C1165   1.401       .  A
C1164      H1169   1.083       .  S
C1165      C1166   1.408       .  A
C1166      O1170   1.371       .  S
C1167      C1172   1.415       .  A
C1167      C1176   1.408       .  A
O1168      H1184   0.992       .  S
O1170      H1181   0.992       .  S
C1172      C1173   1.408       .  A
C1172      O1177   1.371       .  S
C1173      C1174   1.405       .  A
C1173      H1178   1.084       .  S
C1174      C1175   1.409       .  A
C1175      C1176   1.404       .  A
C1175      O1179   1.371       .  S
C1176      H1180   1.083       .  S
O1177      H1182   0.992       .  S
O1179      H1183   0.992       .  S
C1185      C1186   1.399       .  A
C1185      C1190   1.396       .  A
C1185      H1195   1.084       .  S
C1186      C1187   1.414       .  A
C1186      C1191   1.486       .  S
C1187      C1188   1.408       .  A
C1187      O1192   1.372       .  S
C1188      C1189   1.402       .  A
C1188      H1193   1.083       .  S
C1189      C1190   1.415       .  A
C1190      O1194   1.373       .  S
C1191      C1196   1.410       .  A
C1191      C1200   1.403       .  A
O1192      H1208   0.992       .  S
O1194      H1205   0.992       .  S
C1196      C1197   1.402       .  A
C1196      O1201   1.371       .  S
C1197      C1198   1.403       .  A
C1197      H1202   1.083       .  S
C1198      C1199   1.411       .  A
C1199      C1200   1.400       .  A
C1199      O1203   1.371       .  S
C1200      H1204   1.084       .  S
O1201      H1206   0.992       .  S
O1203      H1207   0.991       .  S
C1209      C1210   1.399       .  A
C1209      C1214   1.397       .  A
C1209      H1219   1.084       .  S
C1210      C1211   1.417       .  A
C1210      C1215   1.497       .  S
C1211      C1212   1.414       .  A
C1211      O1216   1.373       .  S
C1212      C1213   1.404       .  A
C1212      H1217   1.083       .  S
C1213      C1214   1.417       .  A
C1214      O1218   1.374       .  S
C1215      C1220   1.412       .  A
C1215      C1224   1.408       .  A
O1216      H1232   0.992       .  S
O1218      H1229   0.992       .  S
C1220      C1221   1.403       .  A
C1220      O1225   1.371       .  S
C1221      C1222   1.405       .  A
C1221      H1226   1.083       .  S
C1222      C1223   1.407       .  A
C1223      C1224   1.403       .  A
C1223      O1227   1.371       .  S
C1224      H1228   1.083       .  S
O1225      H1230   0.992       .  S
O1227      H1231   0.992       .  S
C1233      C1234   1.408       .  A
C1233      C1238   1.402       .  A
C1233      H1243   1.083       .  S
C1234      C1235   1.412       .  A
C1234      C1239   1.498       .  S
C1235      C1236   1.406       .  A
C1235      O1240   1.371       .  S
C1236      C1237   1.404       .  A
C1236      H1241   1.083       .  S
C1237      C1238   1.407       .  A
C1238      O1242   1.370       .  S
C1239      C1244   1.412       .  A
C1239      C1248   1.408       .  A
O1240      H1256   0.992       .  S
O1242      H1253   0.992       .  S
C1244      C1245   1.404       .  A
C1244      O1249   1.373       .  S
C1245      C1246   1.405       .  A
C1245      H1250   1.084       .  S
C1246      C1247   1.408       .  A
C1247      C1248   1.405       .  A
C1247      O1251   1.371       .  S
C1248      H1252   1.083       .  S
O1249      H1254   0.992       .  S
O1251      H1255   0.992       .  S
C1257      C1258   1.404       .  A
C1257      C1262   1.400       .  A
C1257      H1267   1.083       .  S
C1258      C1259   1.413       .  A
C1258      C1263   1.494       .  S
C1259      C1260   1.406       .  A
C1259      O1264   1.371       .  S
C1260      C1261   1.405       .  A
C1260      H1265   1.084       .  S
C1261      C1262   1.412       .  A
C1262      O1266   1.372       .  S
C1263      C1268   1.415       .  A
C1263      C1272   1.405       .  A
O1264      H1280   0.992       .  S
O1266      H1277   0.991       .  S
C1268      C1269   1.402       .  A
C1268      O1273   1.372       .  S
C1269      C1270   1.401       .  A
C1269      H1274   1.082       .  S
C1270      C1271   1.410       .  A
C1271      C1272   1.403       .  A
C1271      O1275   1.372       .  S
C1272      H1276   1.083       .  S
O1273      H1278   0.992       .  S
O1275      H1279   0.992       .  S
C1281      C1282   1.404       .  A
C1281      C1286   1.396       .  A
C1281      H1291   1.084       .  S
C1282      C1283   1.409       .  A
C1282      C1287   1.484       .  S
C1283      C1284   1.402       .  A
C1283      O1288   1.374       .  S
C1284      C1285   1.402       .  A
C1284      H1289   1.081       .  S
C1285      C1286   1.407       .  A
C1286      O1290   1.372       .  S
C1287      C1292   1.415       .  A
C1287      C1296   1.398       .  A
O1288      H1304   0.992       .  S
O1290      H1301   0.992       .  S
C1292      C1293   1.407       .  A
C1292      O1297   1.373       .  S
C1293      C1294   1.400       .  A
C1293      H1298   1.084       .  S
C1294      C1295   1.414       .  A
C1295      C1296   1.392       .  A
C1295      O1299   1.373       .  S
C1296      H1300   1.084       .  S
O1297      H1302   0.992       .  S
O1299      H1303   0.991       .  S
C1305      C1306   1.406       .  A
C1305      C1310   1.404       .  A
C1305      H1315   1.083       .  S
C1306      C1307   1.413       .  A
C1306      C1311   1.495       .  S
C1307      C1308   1.403       .  A
C1307      O1312   1.372       .  S
C1308      C1309   1.404       .  A
C1308      H1313   1.084       .  S
C1309      C1310   1.408       .  A
C1310      O1314   1.372       .  S
C1311      C1316   1.416       .  A
C1311      C1320   1.401       .  A
O1312      H1328   0.992       .  S
O1314      H1325   0.992       .  S
C1316      C1317   1.410       .  A
C1316      O1321   1.372       .  S
C1317      C1318   1.403       .  A
C1317      H1322   1.083       .  S
C1318      C1319   1.414       .  A
C1319      C1320   1.398       .  A
C1319      O1323   1.372       .  S
C1320      H1324   1.083       .  S
O1321      H1326   0.992       .  S
O1323      H1327   0.992       .  S
C1329      C1330   1.409       .  A
C1329      C1334   1.404       .  A
C1329      H1339   1.083       .  S
C1330      C1331   1.414       .  A
C1330      C1335   1.504       .  S
C1331      C1332   1.408       .  A
C1331      O1336   1.372       .  S
C1332      C1333   1.406       .  A
C1332      H1337   1.081       .  S
C1333      C1334   1.412       .  A
C1334      O1338   1.372       .  S
C1335      C1340   1.417       .  A
C1335      C1344   1.403       .  A
O1336      H1352   0.992       .  S
O1338      H1349   0.992       .  S
C1340      C1341   1.411       .  A
C1340      O1345   1.371       .  S
C1341      C1342   1.407       .  A
C1341      H1346   1.083       .  S
C1342      C1343   1.415       .  A
C1343      C1344   1.397       .  A
C1343      O1347   1.372       .  S
C1344      H1348   1.083       .  S
O1345      H1350   0.992       .  S
O1347      H1351   0.992       .  S
C1353      C1354   1.405       .  A
C1353      C1358   1.407       .  A
C1353      H1363   1.083       .  S
C1354      C1355   1.414       .  A
C1354      C1359   1.499       .  S
C1355      C1356   1.407       .  A
C1355      O1360   1.371       .  S
C1356      C1357   1.405       .  A
C1356      H1361   1.083       .  S
C1357      C1358   1.414       .  A
C1358      O1362   1.372       .  S
C1359      C1364   1.413       .  A
C1359      C1368   1.404       .  A
O1360      H1376   0.992       .  S
O1362      H1373   0.992       .  S
C1364      C1365   1.411       .  A
C1364      O1369   1.371       .  S
C1365      C1366   1.407       .  A
C1365      H1370   1.084       .  S
C1366      C1367   1.413       .  A
C1367      C1368   1.405       .  A
C1367      O1371   1.373       .  S
C1368      H1372   1.084       .  S
O1369      H1374   0.992       .  S
O1371      H1375   0.992       .  S
C1377      C1378   1.405       .  A
C1377      C1382   1.404       .  A
C1377      H1387   1.083       .  S
C1378      C1379   1.410       .  A
C1378      C1383   1.495       .  S
C1379      C1380   1.405       .  A
C1379      O1384   1.371       .  S
C1380      C1381   1.405       .  A
C1380      H1385   1.083       .  S
C1381      C1382   1.411       .  A
C1382      O1386   1.372       .  S
C1383      C1388   1.407       .  A
C1383      C1392   1.411       .  A
O1384      H1400   0.992       .  S
O1386      H1397   0.992       .  S
C1388      C1389   1.402       .  A
C1388      O1393   1.372       .  S
C1389      C1390   1.407       .  A
C1389      H1394   1.084       .  S
C1390      C1391   1.406       .  A
C1391      C1392   1.408       .  A
C1391      O1395   1.371       .  S
C1392      H1396   1.083       .  S
O1393      H1398   0.992       .  S
O1395      H1399   0.992       .  S
C1401      C1402   1.400       .  A
C1401      C1406   1.398       .  A
C1401      H1411   1.083       .  S
C1402      C1403   1.415       .  A
C1402      C1407   1.490       .  S
C1403      C1404   1.406       .  A
C1403      O1408   1.371       .  S
C1404      C1405   1.401       .  A
C1404      H1409   1.083       .  S
C1405      C1406   1.410       .  A
C1406      O1410   1.373       .  S
C1407      C1412   1.411       .  A
C1407      C1416   1.407       .  A
O1408      H1424   0.992       .  S
O1410      H1421   0.992       .  S
C1412      C1413   1.400       .  A
C1412      O1417   1.372       .  S
C1413      C1414   1.403       .  A
C1413      H1418   1.084       .  S
C1414      C1415   1.407       .  A
C1415      C1416   1.402       .  A
C1415      O1419   1.371       .  S
C1416      H1420   1.083       .  S
O1417      H1422   0.992       .  S
O1419      H1423   0.992       .  S
