geometry optimzed in LAMMPS
_audit_creation_date              2020-11-30 
_audit_creation_method            'lammps2cif' 
_symmetry_space_group_name_H-M    'P1' 
_symmetry_Int_Tables_number       1 
_symmetry_cell_setting            triclinic 
loop_ 
_symmetry_equiv_pos_as_xyz 
  x,y,z 
_cell_length_a                    38.0025811 
_cell_length_b                    43.57831223560874 
_cell_length_c                    26.920074403601788 
_cell_angle_alpha                 90.00033210283112 
_cell_angle_beta                  89.9982091713 
_cell_angle_gamma                 89.99908074709394 
loop_ 
_atom_site_label 
_atom_site_type_symbol 
_atom_site_fract_x 
_atom_site_fract_y 
_atom_site_fract_z 
_atom_site_charge 
C1          C  0.10749748  0.27599154  0.40115019     0.03200
C2          C  0.12538426  0.30266260  0.41609885    -0.13000
C3          C  0.15568091  0.31274943  0.39207010     0.00700
C4          C  0.16864001  0.29649309  0.35156558    -0.11500
C5          C  0.15226773  0.26910189  0.33661401     0.03200
C6          C  0.12163887  0.25869413  0.36159437    -0.10900
H7          H  0.11583323  0.31622944  0.44704003     0.08800
H8          H  0.19232586  0.30444747  0.33316246     0.06300
H9          H  0.10873735  0.23777665  0.34973584     0.06100
C10         C  0.35744818  0.20950541  0.03974378     0.03200
C11         C  0.34448789  0.22653180  0.08038029    -0.13000
C12         C  0.31381879  0.21663035  0.10575045     0.00700
C13         C  0.29617122  0.18997715  0.09010298    -0.11500
C14         C  0.30790586  0.17411503  0.04839799     0.03200
C15         C  0.33809631  0.18391768  0.02367522    -0.10900
H16         H  0.35851562  0.24670247  0.09306002     0.08800
H17         H  0.27285494  0.18205781  0.10944857     0.06300
H18         H  0.35503630  0.16722867  0.49526762     0.06100
O19         O  0.22556314  0.18529662  0.30761764    -0.80900
O20         O  0.19288377  0.29726167  0.17769190    -0.65500
O21         O  0.22037137  0.21668875  0.21844600    -1.12100
C22         C  0.32654288  0.26782384  0.26536742     1.06000
O23         O  0.24351532  0.30163717  0.13834201    -0.78800
O24         O  0.29833014  0.26295929  0.14500231    -0.66300
Ni25       Ni  0.19028660  0.19192852  0.25800466     1.34900
C26         C  0.29923237  0.23396967  0.14792810     0.84800
O27         O  0.16076016  0.24170759  0.17034644    -0.79300
O28         O  0.15380565  0.19680399  0.21045365    -0.89600
C29         C  0.21293126  0.31165304  0.14806928     0.84300
O30         O  0.16937044  0.22255580  0.29910998    -0.67800
O31         O  0.31639272  0.28790093  0.23392635    -0.87100
C32         C  0.16841488  0.25152297  0.29585581     0.85200
C33         C  0.14380504  0.21682880  0.17886903     1.06700
H34         H  0.24443661  0.28038436  0.25697272     0.38500
O35         O  0.24897413  0.26885831  0.22696997    -1.09700
O36         O  0.28698997  0.21898274  0.18461727    -0.66400
Ni37       Ni  0.26460146  0.22898652  0.24667038     1.26300
O38         O  0.18185143  0.26638785  0.25992341    -0.66600
O39         O  0.30911891  0.24324062  0.27445223    -0.78900
C40         C  0.25532731  0.17394783  0.29697498     0.84600
O41         O  0.27585659  0.18785368  0.26728789    -0.66100
Ni42       Ni  0.27908980  0.29369067  0.18745101     1.27400
Ni43       Ni  0.20481169  0.25636226  0.19846440     1.26100
H44         H  0.22479300  0.20508740  0.18854333     0.39100
C45         C  0.17856868  0.39529714  0.41069275     0.03200
C46         C  0.17139709  0.36780438  0.38600773    -0.13000
C47         C  0.17352968  0.34008961  0.41173707     0.00700
C48         C  0.18388555  0.33988532  0.46166486    -0.11500
C49         C  0.19213128  0.36600131  0.98673081     0.03200
C50         C  0.19089352  0.39479117  0.45985590    -0.10900
H51         H  0.15962179  0.36829998  0.34931975     0.08800
H52         H  0.18190860  0.31820807  0.48072705     0.06300
H53         H  0.19605112  0.41668653  0.47695637     0.06100
C54         C  0.20136787  0.33976076  0.12263265     0.03200
C55         C  0.20318221  0.36802750  0.14740163    -0.13000
C56         C  0.20369865  0.39540920  0.12010647     0.00700
C57         C  0.20210823  0.39431162  0.06822450    -0.11500
C58         C  0.19728304  0.36637217  0.04242765     0.03200
C59         C  0.19724454  0.33908671  0.07090846    -0.10900
H60         H  0.20790902  0.36859181  0.18710967     0.08800
H61         H  0.20601153  0.41568335  0.04880982     0.06300
H62         H  0.19532989  0.31677121  0.05391040     0.06100
C63         C  0.11206708  0.45899399  0.40131213     0.03200
C64         C  0.13116903  0.43317511  0.41715871    -0.13000
C65         C  0.16155512  0.42347258  0.39274655     0.00700
C66         C  0.17353614  0.43947179  0.35132886    -0.11500
C67         C  0.15598201  0.46617045  0.33572644     0.03200
C68         C  0.12523711  0.47606098  0.36088982    -0.10900
H69         H  0.12215106  0.41972248  0.44855698     0.08800
H70         H  0.19702227  0.43167179  0.33226091     0.06300
H71         H  0.11138357  0.99634945  0.34832678     0.06100
C72         C  0.36307228  0.02610360  0.04094933     0.03200
C73         C  0.34838961  0.50873974  0.07998003    -0.13000
C74         C  0.31773572  0.01935507  0.10465665     0.00700
C75         C  0.30179081  0.04694888  0.08983813    -0.11500
C76         C  0.31536175  0.06335612  0.04991283     0.03200
C77         C  0.34579227  0.05317183  0.02636810    -0.10900
H78         H  0.36086156  0.48757984  0.09163280     0.08800
H79         H  0.27796439  0.05493492  0.10784070     0.06300
H80         H  0.34701875  0.06348461  0.49289858     0.06100
O81         O  0.24355354  0.43583119  0.13303575    -0.80900
O82         O  0.27741003  0.04702938  0.26401901    -0.65500
O83         O  0.24953633  0.46669439  0.22249481    -1.12100
C84         C  0.14350957  0.01863486  0.17739944     1.06000
O85         O  0.22721748  0.05051691  0.30448538    -0.78800
O86         O  0.17173421  0.01265437  0.29729895    -0.66300
Ni87       Ni  0.27927995  0.44208783  0.18218874     1.34900
C88         C  0.17081142  0.48369379  0.29396792     0.84800
O89         O  0.30933509  0.49129599  0.27038158    -0.79300
O90         O  0.31621851  0.44669036  0.22931120    -0.89600
C91         C  0.25746022  0.06106696  0.29421208     0.84300
O92         O  0.29989576  0.47283459  0.14119212    -0.67800
O93         O  0.15381329  0.03853234  0.20907964    -0.87100
C94         C  0.30122485  0.00174880  0.14500553     0.85200
C95         C  0.32619367  0.46642977  0.26143734     1.06700
H96         H  0.22541417  0.03068126  0.18517904     0.38500
O97         O  0.22103850  0.01897041  0.21505769    -1.09700
O98         O  0.18314705  0.46890273  0.25716496    -0.66400
Ni99       Ni  0.20516932  0.47926584  0.19504601     1.26300
O100        O  0.28808698  0.01650328  0.18128594    -0.66600
O101        O  0.16061431  0.49390421  0.16814005    -0.78900
C102        C  0.21388732  0.42441204  0.14401941     0.84600
O103        O  0.19355161  0.43826896  0.17402903    -0.66100
Ni104      Ni  0.19129733  0.04356261  0.25552877     1.27400
Ni105      Ni  0.26530726  0.00623534  0.24281865     1.26100
H106        H  0.24528330  0.45494303  0.25228970     0.39100
C107        C  0.26555170  0.14507278  0.32117137     0.03200
C108        C  0.26737673  0.14424532  0.37304309    -0.13000
C109        C  0.27259856  0.11646940  0.39907788     0.00700
C110        C  0.27297301  0.08905609  0.37092777    -0.11500
C111        C  0.26858961  0.08944127  0.31924710     0.03200
C112        C  0.26620321  0.11757386  0.29418136    -0.10900
H113        H  0.26341043  0.16566456  0.39233266     0.08800
H114        H  0.27548346  0.06685507  0.38818025     0.04700
H115        H  0.26130226  0.11791890  0.25450771     0.06100
C116        C  0.29122291  0.14571969  0.03078919     0.03200
C117        C  0.29905045  0.11836324  0.05551080    -0.13000
C118        C  0.29762288  0.09060915  0.02978270     0.00700
C119        C  0.27860096  0.08885897  0.48234622    -0.11500
C120        C  0.27783715  0.11638463  0.45471175     0.03200
C121        C  0.28678077  0.14363954  0.47995658    -0.10900
H122        H  0.31070099  0.11906817  0.09226812     0.08800
H123        H  0.27276974  0.06702061  0.46546910     0.06300
H124        H  0.28905941  0.16521599  0.46063221     0.06100
C125        C  0.11067358  0.20934425  0.15193117     0.03200
C126        C  0.09232899  0.18298828  0.16699554    -0.13000
C127        C  0.06227358  0.17295937  0.14241381     0.00700
C128        C  0.04992345  0.18903730  0.10135126    -0.11500
C129        C  0.06682613  0.21616842  0.08630536     0.03200
C130        C  0.09720385  0.22651937  0.11185071    -0.10900
H131        H  0.10149200  0.16948191  0.19824495     0.08800
H132        H  0.02649971  0.18104525  0.08233928     0.06300
H133        H  0.11053432  0.24720729  0.09987256     0.06100
C134        C  0.36043417  0.27488785  0.29136366     0.03200
C135        C  0.37426752  0.25762094  0.33127553    -0.13000
C136        C  0.40528824  0.26761013  0.35590233     0.00700
C137        C  0.42228981  0.29454860  0.34040454    -0.11500
C138        C  0.40970327  0.31073314  0.29968380     0.03200
C139        C  0.37922118  0.30094997  0.27559786    -0.10900
H140        H  0.36078061  0.23713739  0.34379650     0.08800
H141        H  0.44597805  0.30238856  0.35893202     0.06300
H142        H  0.36993929  0.31451118  0.24448417     0.06100
O143        O  0.49149189  0.29919920  0.05608265    -0.80900
O144        O  0.02499023  0.18758770  0.42581682    -0.65500
O145        O  0.50152632  0.26785537  0.46672806    -1.12100
C146        C  0.39123735  0.21626109  0.01368287     1.06000
O147        O  0.47872498  0.18407698  0.38566682    -0.78800
O148        O  0.42235792  0.22123477  0.39383947    -0.66300
Ni149      Ni  0.03085955  0.29305488  0.00556590     1.34900
C150        C  0.42119373  0.25019276  0.39705829     0.84800
O151        O  0.05737581  0.24331055  0.41892669    -0.79300
O152        O  0.06415278  0.28793904  0.45986890    -0.89600
C153        C  0.50878973  0.17318798  0.39602843     0.84300
O154        O  0.05098384  0.26250263  0.04742350    -0.67800
O155        O  0.40650181  0.19560518  0.48247444    -0.87100
C156        C  0.05165318  0.23352179  0.04468110     0.85200
C157        C  0.07429091  0.26817082  0.42792785     1.06700
H158        H  0.47333202  0.20369858  0.00509231     0.38500
O159        O  0.47305278  0.21560767  0.47485126    -1.09700
O160        O  0.43442271  0.26517520  0.43310238    -0.66400
Ni161      Ni  0.45729223  0.25526948  0.49485402     1.26300
O162        O  0.03876300  0.21850671  0.00853578    -0.66600
O163        O  0.40876110  0.24070946  0.02292500    -0.78900
C164        C  0.46141407  0.31006459  0.04571763     0.84600
O165        O  0.44122363  0.29604853  0.01581023    -0.66100
Ni166      Ni  0.44323011  0.19072221  0.43517143     1.27400
Ni167      Ni  0.01323692  0.22846491  0.44683928     1.26100
H168        H  0.49706203  0.27953323  0.43686578     0.39100
C169        C  0.01575566  0.14504732  0.37130406     0.03200
C170        C  0.51642125  0.11658289  0.39751279    -0.13000
C171        C  0.01944294  0.08950723  0.37203132     0.00700
C172        C  0.02345893  0.08956155  0.32035111    -0.11500
C173        C  0.02298676  0.11717262  0.29267760     0.03200
C174        C  0.01781570  0.14473010  0.31941659    -0.10900
H175        H  0.51160735  0.11670024  0.43721187     0.08800
H176        H  0.02552905  0.06742864  0.30286599     0.06300
H177        H  0.01396485  0.16638567  0.30089129     0.06100
C178        C  0.04354994  0.08993638  0.16046068     0.03200
C179        C  0.03135630  0.08987572  0.20959105    -0.13000
C180        C  0.02793504  0.11736809  0.23689915     0.00700
C181        C  0.03407741  0.14503518  0.21106527    -0.11500
C182        C  0.04486917  0.14524392  0.16127435     0.03200
C183        C  0.04904467  0.11765003  0.13571485    -0.10900
H184        H  0.02778839  0.06771289  0.22649335     0.08800
H185        H  0.03417672  0.16687876  0.22976611     0.06300
H186        H  0.06100668  0.11765027  0.09913601     0.06100
C187        C  0.10989160  0.02603066  0.15108256     0.03200
C188        C  0.09578909  0.50846642  0.11173232    -0.13000
C189        C  0.06492086  0.01847100  0.08683569     0.00700
C190        C  0.04815591  0.04565284  0.10174220    -0.11500
C191        C  0.06102639  0.06215644  0.14198803     0.03200
C192        C  0.09160583  0.05252139  0.16598266    -0.10900
H193        H  0.10896790  0.48768834  0.09984555     0.08800
H194        H  0.02440741  0.05338062  0.08324554     0.06300
H195        H  0.10116800  0.06635083  0.19661806     0.06100
C196        C  0.35898746  0.45859609  0.28895206     0.03200
C197        C  0.37706141  0.43198194  0.27449668    -0.13000
C198        C  0.40674354  0.42170244  0.29977313     0.00700
C199        C  0.41883789  0.43775218  0.34110906    -0.11500
C200        C  0.40220837  0.46515974  0.35555504     0.03200
C201        C  0.37226513  0.47572280  0.32923542    -0.10900
H202        H  0.36802119  0.41853960  0.24310459     0.08800
H203        H  0.44199328  0.42962425  0.36061289     0.06300
H204        H  0.35913514  0.99661633  0.34071191     0.06100
O205        O  0.47339893  0.05013847  0.38626292    -0.80900
O206        O  0.44518638  0.43696010  0.01622087    -0.65500
O207        O  0.46817696  0.01794496  0.47530220    -1.12100
C208        C  0.07846821  0.46615556  0.42763638     1.06000
O209        O  0.49582429  0.43314742  0.05570256    -0.78800
O210        O  0.04744070  0.47186956  0.05002161    -0.66300
Ni211      Ni  0.43794716  0.04260664  0.43551435     1.34900
C212        C  0.04902439  0.00076880  0.04599904     0.84800
O213        O  0.41282854  0.49289491  0.02308320    -0.79300
O214        O  0.40076124  0.03714987  0.48212959    -0.89600
C215        C  0.46548380  0.42270698  0.04581031     0.84300
O216        O  0.41842771  0.01172963  0.39360058    -0.67800
O217        O  0.06832326  0.44612069  0.45913303    -0.87100
C218        C  0.41735882  0.48276647  0.39704176     0.85200
C219        C  0.39611905  0.01789743  0.01411250     1.06700
H220        H  0.49206879  0.45397857  0.43734806     0.38500
O221        O  0.49659361  0.46566720  0.46715266    -1.09700
O222        O  0.03639383  0.01546417  0.00924623    -0.66400
Ni223      Ni  0.01709391  0.00559621  0.44650730     1.26300
O224        O  0.42981529  0.46799071  0.43376678    -0.66600
O225        O  0.06130244  0.49088810  0.41871179    -0.78900
C226        C  0.50373468  0.06053777  0.39626778     0.84600
O227        O  0.02903692  0.04653185  0.42579700    -0.66100
Ni228      Ni  0.02727009  0.44110210  0.00852316     1.27400
Ni229      Ni  0.45246060  0.47821236  0.49542977     1.26100
H230        H  0.47709780  0.02913976  0.00488076     0.39100
C231        C  0.42691772  0.33875228  0.28158232     0.03200
C232        C  0.42055674  0.36637719  0.30625237    -0.13000
C233        C  0.42439176  0.39407102  0.28084038     0.00700
C234        C  0.43547198  0.39403732  0.23113945    -0.11500
C235        C  0.44243567  0.36648983  0.20539941     0.03200
C236        C  0.43965597  0.33893187  0.23272329    -0.10900
H237        H  0.40830115  0.36615917  0.34263569     0.08800
H238        H  0.43501370  0.41584775  0.21231812     0.06300
H239        H  0.44414123  0.31685476  0.21593913     0.06100
C240        C  0.45077732  0.33874811  0.07021280     0.03200
C241        C  0.45324319  0.36663215  0.04452935    -0.13000
C242        C  0.45435028  0.39434187  0.07088303     0.00700
C243        C  0.45251088  0.39398571  0.12285863    -0.11500
C244        C  0.44741611  0.36638774  0.14960262     0.03200
C245        C  0.44686918  0.33879197  0.12190504    -0.10900
H246        H  0.45798839  0.36659364  0.00481438     0.08800
H247        H  0.45645141  0.41560176  0.14150791     0.06300
H248        H  0.44467861  0.31666332  0.13938879     0.06100
C249        C  0.11183272  0.27410701  0.90148643     0.03200
C250        C  0.13107218  0.29985206  0.91722136    -0.13000
C251        C  0.16143584  0.30943304  0.89269891     0.00700
C252        C  0.17333788  0.29331044  0.85137087    -0.11500
C253        C  0.15572413  0.26659932  0.83594185     0.03200
C254        C  0.12497250  0.25681955  0.86124161    -0.10900
H255        H  0.12211535  0.31341277  0.94853486     0.08800
H256        H  0.19678199  0.30106908  0.83216087     0.06300
H257        H  0.11102087  0.23655298  0.84879559     0.06100
C258        C  0.36287622  0.20779598  0.54063118     0.03200
C259        C  0.34835821  0.22526023  0.57976803    -0.13000
C260        C  0.31762777  0.21481773  0.60454900     0.00700
C261        C  0.30144131  0.18734343  0.58958955    -0.11500
C262        C  0.31481470  0.17088441  0.54957664     0.03200
C263        C  0.34523211  0.18094947  0.52586935    -0.10900
H264        H  0.36109303  0.24627270  0.59154437     0.08800
H265        H  0.27764264  0.17940562  0.60771803     0.06300
H266        H  0.34694138  0.17055333  0.99207723     0.06100
O267        O  0.22677038  0.18188992  0.80342050    -0.80900
O268        O  0.19354007  0.29528068  0.67451214    -0.65500
O269        O  0.22083904  0.21440905  0.71475345    -1.12100
C270        C  0.32580016  0.26690976  0.76264267     1.06000
O271        O  0.24376786  0.29786766  0.63409121    -0.78800
O272        O  0.30036992  0.26123025  0.64246059    -0.66300
Ni273      Ni  0.19093052  0.18956397  0.75458678     1.34900
C274        C  0.30133809  0.23225834  0.64541435     0.84800
O275        O  0.16063845  0.23978355  0.66748273    -0.79300
O276        O  0.15343169  0.19520350  0.70832407    -0.89600
C277        C  0.21401297  0.30919415  0.64476864     0.84300
O278        O  0.17158057  0.22020393  0.79711255    -0.67800
O279        O  0.31561498  0.28698411  0.73125497    -0.87100
C280        C  0.17042973  0.24917293  0.79395259     0.85200
C281        C  0.14325743  0.21522359  0.67676992     1.06700
H282        H  0.24477012  0.27820039  0.75323847     0.38500
O283        O  0.24922096  0.26667284  0.72325339    -1.09700
O284        O  0.28785643  0.21726408  0.68120500    -0.66400
Ni285      Ni  0.26503913  0.22706280  0.74295110     1.26300
O286        O  0.18256634  0.26412226  0.75715554    -0.66600
O287        O  0.30908384  0.24186943  0.77090532    -0.78900
C288        C  0.25728901  0.17184336  0.79335748     0.84600
O289        O  0.27719021  0.18620018  0.76350181    -0.66100
Ni290      Ni  0.27910086  0.29160831  0.68368260     1.27400
Ni291      Ni  0.20503131  0.25420846  0.69513106     1.26100
H292        H  0.22531873  0.20286977  0.68477607     0.39100
C293        C  0.17306179  0.39288291  0.91124351     0.03200
C294        C  0.17094611  0.36512671  0.88562408    -0.13000
C295        C  0.17840185  0.33769553  0.91035394     0.00700
C296        C  0.19083217  0.33833326  0.95947298    -0.11500
C297        C  0.19226979  0.36717804  0.48723016     0.03200
C298        C  0.18361502  0.39320846  0.96106132    -0.10900
H299        H  0.15903070  0.36454013  0.84902969     0.08800
H300        H  0.19610297  0.31648286  0.97665390     0.06300
H301        H  0.18165690  0.41492906  0.97998334     0.06100
C302        C  0.20384394  0.33810706  0.62070876     0.03200
C303        C  0.20307786  0.36550279  0.64792405    -0.13000
C304        C  0.20105871  0.39371497  0.62306344     0.00700
C305        C  0.19700677  0.39428625  0.57131418    -0.11500
C306        C  0.19736347  0.36695783  0.54292729     0.03200
C307        C  0.20242307  0.33910675  0.56882356    -0.10900
H308        H  0.20776044  0.36500963  0.68764726     0.08800
H309        H  0.19490429  0.41656268  0.55422554     0.06300
H310        H  0.20656892  0.31774146  0.54947423     0.06100
C311        C  0.10746547  0.45736772  0.90199034     0.03200
C312        C  0.12476875  0.43016513  0.91575893    -0.13000
C313        C  0.15514685  0.42022023  0.89173502     0.00700
C314        C  0.16852952  0.43693706  0.85202258    -0.11500
C315        C  0.15242830  0.46455968  0.83765687     0.03200
C316        C  0.12196378  0.47502912  0.86304877    -0.10900
H317        H  0.11486213  0.41619398  0.94599833     0.08800
H318        H  0.19227578  0.42907189  0.83367065     0.06300
H319        H  0.10941316  0.99625596  0.85191258     0.06100
C320        C  0.35710522  0.02415120  0.53996282     0.03200
C321        C  0.34399182  0.50700104  0.58030699    -0.13000
C322        C  0.31341003  0.01693670  0.60576945     0.00700
C323        C  0.29595797  0.04379888  0.59050084    -0.11500
C324        C  0.30789370  0.05987976  0.54908988     0.03200
C325        C  0.33804243  0.05001748  0.52430632    -0.10900
H326        H  0.35784778  0.48667208  0.59270260     0.08800
H327        H  0.27265024  0.05169854  0.60988513     0.06300
H328        H  0.35577064  0.06687792  0.99586230     0.06100
O329        O  0.24305896  0.43196795  0.63838491    -0.80900
O330        O  0.27630142  0.04521127  0.76744084    -0.65500
O331        O  0.24895601  0.46436786  0.72720781    -1.12100
C332        C  0.14408769  0.01694527  0.67947841     1.06000
O333        O  0.22615626  0.04795763  0.80808155    -0.78800
O334        O  0.16967962  0.01108438  0.80002439    -0.66300
Ni335      Ni  0.27890712  0.43964995  0.68716408     1.34900
C336        C  0.16857451  0.48212286  0.79679148     0.84800
O337        O  0.30931636  0.48975279  0.77425427    -0.79300
O338        O  0.31649651  0.44522348  0.73331091    -0.89600
C339        C  0.25592537  0.05919527  0.79720584     0.84300
O340        O  0.29796251  0.47046566  0.64468876    -0.67800
O341        O  0.15412731  0.03684167  0.71125422    -0.87100
C342        C  0.29888698  0.99944721  0.64781322     0.85200
C343        C  0.32669343  0.46518319  0.76492826     1.06700
H344        H  0.22488958  0.02823853  0.68905329     0.38500
O345        O  0.22052580  0.01664503  0.71899070    -1.09700
O346        O  0.18181798  0.46721247  0.76070931    -0.66400
Ni347      Ni  0.20475792  0.47706052  0.69904058     1.26300
O348        O  0.28687860  0.01430908  0.68474143    -0.66600
O349        O  0.16082748  0.49195354  0.67097716    -0.78900
C350        C  0.21256168  0.42187067  0.64838423     0.84600
O351        O  0.19261542  0.43620095  0.67823847    -0.66100
Ni352      Ni  0.19070441  0.04154264  0.75869519     1.27400
Ni353      Ni  0.26477359  0.00417248  0.74687595     1.26100
H354        H  0.24447960  0.45277741  0.75717334     0.39100
C355        C  0.26891234  0.14370791  0.81855201     0.03200
C356        C  0.27345954  0.14432578  0.87019130    -0.13000
C357        C  0.27331731  0.11702161  0.89860436     0.00700
C358        C  0.26822537  0.08912478  0.87287922    -0.11500
C359        C  0.26627060  0.08810744  0.82104146     0.03200
C360        C  0.26668382  0.11548692  0.79377623    -0.10900
H361        H  0.27582368  0.16660608  0.88721722     0.08800
H362        H  0.26437842  0.06776603  0.89239674     0.04700
H363        H  0.26163145  0.11496835  0.75414274     0.06100
C364        C  0.29711576  0.14346604  0.52989108     0.03200
C365        C  0.29902250  0.11575800  0.55576100    -0.13000
C366        C  0.29117113  0.08827590  0.53138114     0.00700
C367        C  0.28761117  0.09023316  0.97972389    -0.11500
C368        C  0.27848744  0.11734210  0.95422134     0.03200
C369        C  0.27892262  0.14495173  0.98163064    -0.10900
H370        H  0.31093766  0.11521720  0.59235377     0.08800
H371        H  0.29023041  0.06863310  0.96055060     0.06300
H372        H  0.27306533  0.16671610  0.96452028     0.06100
C373        C  0.10940716  0.20818733  0.65077778     0.03200
C374        C  0.09064482  0.18212732  0.66644461    -0.13000
C375        C  0.06013605  0.17240490  0.64241256     0.00700
C376        C  0.04755689  0.18867173  0.60165492    -0.11500
C377        C  0.06461260  0.21565274  0.58622990     0.03200
C378        C  0.09561108  0.22554464  0.61095649    -0.10900
H379        H  0.09996625  0.16852451  0.69749037     0.08800
H380        H  0.02387910  0.18088227  0.58305722     0.06300
H381        H  0.10913932  0.24603445  0.59854843     0.06100
C382        C  0.35886213  0.27451679  0.78966154     0.03200
C383        C  0.37236567  0.25734324  0.82971162    -0.13000
C384        C  0.40274044  0.26769291  0.85524880     0.00700
C385        C  0.41960478  0.29485664  0.84024829    -0.11500
C386        C  0.40715191  0.31101512  0.79928727     0.03200
C387        C  0.37710538  0.30095398  0.77469834    -0.10900
H388        H  0.35907725  0.23662494  0.84165040     0.08800
H389        H  0.44306844  0.30280352  0.85921018     0.06300
H390        H  0.36790181  0.31446046  0.74347368     0.06100
O391        O  0.49602972  0.29960035  0.55588309    -0.80900
O392        O  0.02816949  0.18731586  0.92634502    -0.65500
O393        O  0.49711105  0.26756562  0.96683244    -1.12100
C394        C  0.39620511  0.21555846  0.51402301     1.06000
O395        O  0.47381146  0.18302335  0.88629222    -0.78800
O396        O  0.41893635  0.22127455  0.89349373    -0.66300
Ni397      Ni  0.02720284  0.29289300  0.50685984     1.34900
C398        C  0.41792572  0.25022832  0.89675583     0.84800
O399        O  0.06080787  0.24266725  0.91904355    -0.79300
O400        O  0.06784890  0.28773739  0.95854131    -0.89600
C401        C  0.50410084  0.17255354  0.89627006     0.84300
O402        O  0.04759938  0.26219233  0.54846337    -0.67800
O403        O  0.40121874  0.19616235  0.98218297    -0.87100
C404        C  0.04893075  0.23323039  0.54498369     0.85200
C405        C  0.07805635  0.26737816  0.92760940     1.06700
H406        H  0.47752996  0.20401109  0.50478474     0.38500
O407        O  0.46870960  0.21529208  0.97519106    -1.09700
O408        O  0.43040033  0.26510646  0.93335697    -0.66400
Ni409      Ni  0.45299636  0.25507451  0.99511343     1.26300
O410        O  0.03613521  0.21837539  0.50851308    -0.66600
O411        O  0.41303339  0.24052348  0.52270274    -0.78900
C412        C  0.46595464  0.31039723  0.54552851     0.84600
O413        O  0.44566182  0.29628661  0.51575892    -0.66100
Ni414      Ni  0.43842766  0.19055844  0.93558705     1.27400
Ni415      Ni  0.01642026  0.22836685  0.94660519     1.26100
H416        H  0.49260391  0.27923217  0.93697754     0.39100
C417        C  0.01861390  0.14446560  0.87231239     0.03200
C418        C  0.51641821  0.11644076  0.89774184    -0.13000
C419        C  0.01581663  0.08882853  0.87185617     0.00700
C420        C  0.01800266  0.08913697  0.81990940    -0.11500
C421        C  0.02277549  0.11675045  0.79307364     0.03200
C422        C  0.02275057  0.14437840  0.82066593    -0.10900
H423        H  0.51150565  0.11638695  0.93741688     0.08800
H424        H  0.01454989  0.06743243  0.80136039     0.06300
H425        H  0.02467564  0.16650319  0.80311971     0.06100
C426        C  0.04561315  0.08903361  0.66169183     0.03200
C427        C  0.03480710  0.08909209  0.71151355    -0.13000
C428        C  0.02789466  0.11664811  0.73726736     0.00700
C429        C  0.03062376  0.14420294  0.70986033    -0.11500
C430        C  0.04299318  0.14437209  0.66077206     0.03200
C431        C  0.04930328  0.11671337  0.63617534    -0.10900
H432        H  0.03532522  0.06727835  0.73030879     0.08800
H433        H  0.02635443  0.16629818  0.72667748     0.06300
H434        H  0.06138669  0.11689578  0.59967893     0.06100
C435        C  0.11120438  0.02472454  0.65221862     0.03200
C436        C  0.09784459  0.50770110  0.61190299    -0.13000
C437        C  0.06760173  0.01817567  0.58620166     0.00700
C438        C  0.05080087  0.04538751  0.60124700    -0.11500
C439        C  0.06309614  0.06138302  0.64250972     0.03200
C440        C  0.09300578  0.05116706  0.66723416    -0.10900
H441        H  0.11110358  0.48696751  0.59996586     0.08800
H442        H  0.02743810  0.05344695  0.58216954     0.06300
H443        H  0.10212829  0.06454984  0.69864610     0.06100
C444        C  0.36051295  0.45801130  0.79101751     0.03200
C445        C  0.37920956  0.43185780  0.77545866    -0.13000
C446        C  0.40966282  0.42206127  0.79963225     0.00700
C447        C  0.42219020  0.43827886  0.84042923    -0.11500
C448        C  0.40519618  0.46527512  0.85581254     0.03200
C449        C  0.37430587  0.47530116  0.83092837    -0.10900
H450        H  0.36990054  0.41827219  0.74438833     0.08800
H451        H  0.44582644  0.43044013  0.85908384     0.06300
H452        H  0.36085749  0.99584586  0.84327482     0.06100
O453        O  0.47878691  0.04885420  0.88571587    -0.80900
O454        O  0.44076477  0.43727658  0.51636686    -0.65500
O455        O  0.47272330  0.01747765  0.97496410    -1.12100
C456        C  0.07447786  0.46540797  0.92926191     1.06000
O457        O  0.49110036  0.43441055  0.55647684    -0.78800
O458        O  0.05132384  0.47173653  0.54782178    -0.66300
Ni459      Ni  0.44310329  0.04230518  0.93494244     1.34900
C460        C  0.05235358  0.00071048  0.54467059     0.84800
O461        O  0.40821945  0.49268286  0.52315123    -0.79300
O462        O  0.40632641  0.03756428  0.98207557    -0.89600
C463        C  0.46116690  0.42329594  0.54602961     0.84300
O464        O  0.42232462  0.01172699  0.89358688    -0.67800
O465        O  0.06452737  0.44590472  0.96180388    -0.87100
C466        C  0.42097180  0.48277997  0.89704527     0.85200
C467        C  0.39077411  0.01717070  0.51379685     1.06700
H468        H  0.49653092  0.45371584  0.93673443     0.38500
O469        O  0.50109559  0.46520391  0.96672670    -1.09700
O470        O  0.03974621  0.01562080  0.50821035    -0.66400
Ni471      Ni  0.01340316  0.00523802  0.94770173     1.26300
O472        O  0.43390125  0.46788541  0.93340319    -0.66600
O473        O  0.05746819  0.49017530  0.91985206    -0.78900
C474        C  0.50874841  0.05983902  0.89641848     0.84600
O475        O  0.02522343  0.04612879  0.92635838    -0.66100
Ni476      Ni  0.03124529  0.44104157  0.50605887     1.27400
Ni477      Ni  0.45692656  0.47789272  0.99506750     1.26100
H478        H  0.47279194  0.02960082  0.50515843     0.39100
C479        C  0.42460372  0.33871275  0.78036017     0.03200
C480        C  0.42061522  0.36636601  0.80587628    -0.13000
C481        C  0.42693430  0.39406037  0.78139011     0.00700
C482        C  0.43969924  0.39395877  0.73252768    -0.11500
C483        C  0.44246491  0.36643993  0.70505869     0.03200
C484        C  0.43557490  0.33883795  0.73064199    -0.10900
H485        H  0.40833974  0.36648185  0.84224526     0.08800
H486        H  0.44427392  0.41605831  0.71585833     0.06300
H487        H  0.43510907  0.31706161  0.71170512     0.06100
C488        C  0.45501995  0.33883290  0.57055384     0.03200
C489        C  0.45406923  0.36660087  0.54433111    -0.13000
C490        C  0.45094062  0.39440575  0.57012977     0.00700
C491        C  0.44656301  0.39423115  0.62171679    -0.11500
C492        C  0.44748523  0.36662453  0.64930173     0.03200
C493        C  0.45295018  0.33910571  0.62250492    -0.10900
H494        H  0.45915596  0.36675769  0.50469980     0.08800
H495        H  0.44369122  0.41628816  0.63925135     0.06300
H496        H  0.45693047  0.31748039  0.64111170     0.06100
C497        C  0.10749638  0.77599326  0.40114837     0.03200
C498        C  0.12538293  0.80266440  0.41609679    -0.13000
C499        C  0.15568091  0.81274999  0.39207035     0.00700
C500        C  0.16864091  0.79649289  0.35156717    -0.11500
C501        C  0.15226817  0.76910206  0.33661487     0.03200
C502        C  0.12163858  0.75869505  0.36159411    -0.10900
H503        H  0.11583103  0.81623202  0.44703650     0.08800
H504        H  0.19232748  0.80444663  0.33316522     0.06300
H505        H  0.10873698  0.73777755  0.34973573     0.06100
C506        C  0.35744830  0.70950786  0.03974234     0.03200
C507        C  0.34448680  0.72653393  0.08037821    -0.13000
C508        C  0.31381783  0.71663155  0.10574789     0.00700
C509        C  0.29617141  0.68997778  0.09010032    -0.11500
C510        C  0.30790718  0.67411605  0.04839565     0.03200
C511        C  0.33809734  0.68391975  0.02367342    -0.10900
H512        H  0.35851374  0.74670492  0.09305831     0.08800
H513        H  0.27285536  0.68205766  0.10944559     0.06300
H514        H  0.35503585  0.66722881  0.49526422     0.06100
O515        O  0.22556216  0.68529690  0.30761686    -0.80900
O516        O  0.19288284  0.79726195  0.17769234    -0.65500
O517        O  0.22037029  0.71668881  0.21844520    -1.12100
C518        C  0.32654254  0.76782360  0.26536522     1.06000
O519        O  0.24351425  0.80163798  0.13834210    -0.78800
O520        O  0.29832874  0.76295991  0.14500072    -0.66300
Ni521      Ni  0.19028540  0.69192865  0.25800408     1.34900
C522        C  0.29923097  0.73397028  0.14792584     0.84800
O523        O  0.16075889  0.74170798  0.17034680    -0.79300
O524        O  0.15380420  0.69680406  0.21045307    -0.89600
C525        C  0.21293015  0.81165355  0.14806976     0.84300
O526        O  0.16936942  0.72255588  0.29910968    -0.67800
O527        O  0.31639215  0.78790077  0.23392455    -0.87100
C528        C  0.16841481  0.75152311  0.29585631     0.85200
C529        C  0.14380369  0.71682912  0.17886869     1.06700
H530        H  0.24443634  0.78038411  0.25697196     0.38500
O531        O  0.24897354  0.76885827  0.22696908    -1.09700
O532        O  0.28698870  0.71898293  0.18461481    -0.66400
Ni533      Ni  0.26460080  0.72898636  0.24666882     1.26300
O534        O  0.18185147  0.76638800  0.25992401    -0.66600
O535        O  0.30911870  0.74324026  0.27444997    -0.78900
C536        C  0.25532618  0.67394786  0.29697400     0.84600
O537        O  0.27585546  0.68785337  0.26728636    -0.66100
Ni538      Ni  0.27908893  0.79369096  0.18745024     1.27400
Ni539      Ni  0.20481077  0.75636244  0.19846425     1.26100
H540        H  0.22479159  0.70508755  0.18854256     0.39100
C541        C  0.17856945  0.89529725  0.41069433     0.03200
C542        C  0.17139740  0.86780470  0.38600910    -0.13000
C543        C  0.17352972  0.84008982  0.41173817     0.00700
C544        C  0.18388491  0.83988535  0.46166637    -0.11500
C545        C  0.19213275  0.86600125  0.98673039     0.03200
C546        C  0.19089469  0.89479106  0.45985718    -0.10900
H547        H  0.15962206  0.86830057  0.34932117     0.08800
H548        H  0.18190706  0.81820826  0.48072906     0.06300
H549        H  0.19605346  0.91668628  0.47695748     0.06100
C550        C  0.20136648  0.83976105  0.12263297     0.03200
C551        C  0.20318021  0.86802776  0.14740197    -0.13000
C552        C  0.20369841  0.89540942  0.12010679     0.00700
C553        C  0.20210944  0.89431174  0.06822460    -0.11500
C554        C  0.19728412  0.86637226  0.04242755     0.03200
C555        C  0.19724484  0.83908693  0.07090855    -0.10900
H556        H  0.20790589  0.86859202  0.18711028     0.08800
H557        H  0.20601391  0.91568336  0.04881016     0.06300
H558        H  0.19533121  0.81677139  0.05391042     0.06100
C559        C  0.11206856  0.95899461  0.40131586     0.03200
C560        C  0.13117055  0.93317568  0.41716190    -0.13000
C561        C  0.16155609  0.92347281  0.39274877     0.00700
C562        C  0.17353654  0.93947153  0.35133036    -0.11500
C563        C  0.15598262  0.96617027  0.33572815     0.03200
C564        C  0.12523825  0.97606125  0.36089272    -0.10900
H565        H  0.12215288  0.91972316  0.44856044     0.08800
H566        H  0.19702225  0.93167115  0.33226180     0.06300
H567        H  0.11138227  0.49634903  0.34832352     0.06100
C568        C  0.36307381  0.52610326  0.04095076     0.03200
C569        C  0.34838891  0.00873972  0.07997883    -0.13000
C570        C  0.31773622  0.51935565  0.10465676     0.00700
C571        C  0.30179208  0.54694973  0.08983775    -0.11500
C572        C  0.31536391  0.56335656  0.04991250     0.03200
C573        C  0.34579442  0.55317163  0.02636861    -0.10900
H574        H  0.36086143  0.98757997  0.09163099     0.08800
H575        H  0.27796555  0.55493617  0.10783960     0.06300
H576        H  0.34701952  0.56348608  0.49289985     0.06100
O577        O  0.24355476  0.93583011  0.13303759    -0.80900
O578        O  0.27740830  0.54702946  0.26401767    -0.65500
O579        O  0.24953750  0.96669405  0.22249681    -1.12100
C580        C  0.14350724  0.51863446  0.17739812     1.06000
O581        O  0.22721538  0.55051746  0.30448317    -0.78800
O582        O  0.17173235  0.51265462  0.29729651    -0.66300
Ni583      Ni  0.27928105  0.94208730  0.18219072     1.34900
C584        C  0.17081235  0.98369362  0.29396958     0.84800
O585        O  0.30933659  0.99129592  0.27038292    -0.79300
O586        O  0.31621978  0.94669021  0.22931281    -0.89600
C587        C  0.25745838  0.56106715  0.29421039     0.84300
O588        O  0.29989632  0.97283396  0.14119326    -0.67800
O589        O  0.15381147  0.53853244  0.20907713    -0.87100
C590        C  0.30122428  0.50174941  0.14500470     0.85200
C591        C  0.32619517  0.96642979  0.26143850     1.06700
H592        H  0.22541247  0.53068115  0.18517699     0.38500
O593        O  0.22103684  0.51897052  0.21505571    -1.09700
O594        O  0.18314761  0.96890271  0.25716609    -0.66400
Ni595      Ni  0.20517085  0.97926591  0.19504748     1.26300
O596        O  0.28808570  0.51650381  0.18128466    -0.66600
O597        O  0.16061671  0.99390483  0.16814061    -0.78900
C598        C  0.21388795  0.92441187  0.14402045     0.84600
O599        O  0.19355250  0.93826923  0.17402991    -0.66100
Ni600      Ni  0.19129545  0.54356284  0.25552631     1.27400
Ni601      Ni  0.26530573  0.50623554  0.24281701     1.26100
H602        H  0.24528418  0.95494281  0.25229157     0.39100
C603        C  0.26555028  0.64507268  0.32117027     0.03200
C604        C  0.26737599  0.64424502  0.37304199    -0.13000
C605        C  0.27259857  0.61646896  0.39907639     0.00700
C606        C  0.27297265  0.58905567  0.37092610    -0.11500
C607        C  0.26858809  0.58944121  0.31924557     0.03200
C608        C  0.26620130  0.61757386  0.29418005    -0.10900
H609        H  0.26340980  0.66566417  0.39233190     0.08800
H610        H  0.27548354  0.56685458  0.38817830     0.04700
H611        H  0.26129981  0.61791901  0.25450653     0.06100
C612        C  0.29122567  0.64572018  0.03078637     0.03200
C613        C  0.29905293  0.61836394  0.05550886    -0.13000
C614        C  0.29762593  0.59060967  0.02978108     0.00700
C615        C  0.27860155  0.58885854  0.48234483    -0.11500
C616        C  0.27783787  0.61638410  0.45471008     0.03200
C617        C  0.28678174  0.64363900  0.47995459    -0.10900
H618        H  0.31070247  0.61906919  0.09226679     0.08800
H619        H  0.27277085  0.56702011  0.46546763     0.06300
H620        H  0.28906102  0.66521525  0.46062979     0.06100
C621        C  0.11067236  0.70934488  0.15192995     0.03200
C622        C  0.09232710  0.68298922  0.16699404    -0.13000
C623        C  0.06227223  0.67296017  0.14241113     0.00700
C624        C  0.04992298  0.68903796  0.10134805    -0.11500
C625        C  0.06682609  0.71616899  0.08630238     0.03200
C626        C  0.09720361  0.72651984  0.11184856    -0.10900
H627        H  0.10148934  0.66948305  0.19824417     0.08800
H628        H  0.02649953  0.68104592  0.08233538     0.06300
H629        H  0.11053459  0.74720751  0.09987039     0.06100
C630        C  0.36043379  0.77488797  0.29136124     0.03200
C631        C  0.37426778  0.75762078  0.33127225    -0.13000
C632        C  0.40528833  0.76761023  0.35589907     0.00700
C633        C  0.42228910  0.79454930  0.34040220    -0.11500
C634        C  0.40970182  0.81073432  0.29968252     0.03200
C635        C  0.37921990  0.80095088  0.27559643    -0.10900
H636        H  0.36078140  0.73713684  0.34379265     0.08800
H637        H  0.44597733  0.80238941  0.35892954     0.06300
H638        H  0.36993759  0.81451237  0.24448329     0.06100
O639        O  0.49149407  0.79919925  0.05608385    -0.80900
O640        O  0.02499044  0.68758921  0.42581382    -0.65500
O641        O  0.50152646  0.76785565  0.46672685    -1.12100
C642        C  0.39123820  0.71626343  0.01368318     1.06000
O643        O  0.47872609  0.68407901  0.38566576    -0.78800
O644        O  0.42235718  0.72123489  0.39383745    -0.66300
Ni645      Ni  0.03085938  0.79305494  0.00556107     1.34900
C646        C  0.42119402  0.75019297  0.39705493     0.84800
O647        O  0.05737466  0.74331249  0.41892409    -0.79300
O648        O  0.06415205  0.78794046  0.45986769    -0.89600
C649        C  0.50878966  0.67318839  0.39602948     0.84300
O650        O  0.05098458  0.76250307  0.04741885    -0.67800
O651        O  0.40650204  0.69560472  0.48247214    -0.87100
C652        C  0.05165358  0.73352215  0.04467745     0.85200
C653        C  0.07428983  0.76817261  0.42792581     1.06700
H654        H  0.47333292  0.70369990  0.00509588     0.38500
O655        O  0.47305214  0.71560842  0.47484981    -1.09700
O656        O  0.43442389  0.76517566  0.43309801    -0.66400
Ni657      Ni  0.45729152  0.75527026  0.49485089     1.26300
O658        O  0.03876307  0.71850671  0.00853269    -0.66600
O659        O  0.40876186  0.74071191  0.02292515    -0.78900
C660        C  0.46141694  0.81006561  0.04571788     0.84600
O661        O  0.44122632  0.79605025  0.01580986    -0.66100
Ni662      Ni  0.44323043  0.69072274  0.43516933     1.27400
Ni663      Ni  0.01323673  0.72846601  0.44683800     1.26100
H664        H  0.49706300  0.77953334  0.43686393     0.39100
C665        C  0.01575609  0.64504852  0.37130157     0.03200
C666        C  0.51642101  0.61658305  0.39751479    -0.13000
C667        C  0.01944383  0.58950841  0.37202839     0.00700
C668        C  0.02345892  0.58956296  0.32034805    -0.11500
C669        C  0.02298566  0.61717401  0.29267454     0.03200
C670        C  0.01781532  0.64473150  0.31941390    -0.10900
H671        H  0.51160754  0.61670050  0.43721395     0.08800
H672        H  0.02552907  0.56743010  0.30286281     0.06300
H673        H  0.01396417  0.66638715  0.30088894     0.06100
C674        C  0.04354816  0.58993712  0.16045812     0.03200
C675        C  0.03135334  0.58987676  0.20958790    -0.13000
C676        C  0.02793246  0.61736928  0.23689579     0.00700
C677        C  0.03407439  0.64503628  0.21106146    -0.11500
C678        C  0.04486738  0.64524473  0.16127112     0.03200
C679        C  0.04904382  0.61765068  0.13571233    -0.10900
H680        H  0.02778441  0.56771404  0.22649009     0.08800
H681        H  0.03417276  0.66688002  0.22976180     0.06300
H682        H  0.06100690  0.61765072  0.09913417     0.06100
C683        C  0.10988897  0.52603032  0.15108150     0.03200
C684        C  0.09579132  0.00846586  0.11173463    -0.13000
C685        C  0.06491933  0.51847234  0.08683233     0.00700
C686        C  0.04815465  0.54565421  0.10173880    -0.11500
C687        C  0.06102433  0.56215684  0.14198615     0.03200
C688        C  0.09160290  0.55252080  0.16598222    -0.10900
H689        H  0.10897026  0.98768779  0.09984814     0.08800
H690        H  0.02440678  0.55338261  0.08324120     0.06300
H691        H  0.10116447  0.56634955  0.19661877     0.06100
C692        C  0.35898938  0.95859658  0.28895233     0.03200
C693        C  0.37706361  0.93198268  0.27449662    -0.13000
C694        C  0.40674638  0.92170383  0.29977221     0.00700
C695        C  0.41884116  0.93775386  0.34110742    -0.11500
C696        C  0.40221077  0.96516076  0.35555432     0.03200
C697        C  0.37226711  0.97572348  0.32923533    -0.10900
H698        H  0.36802308  0.91853998  0.24310507     0.08800
H699        H  0.44199700  0.92962632  0.36061057     0.06300
H700        H  0.35913358  0.49661594  0.34071152     0.06100
O701        O  0.47339903  0.55013802  0.38626322    -0.80900
O702        O  0.44518497  0.93696124  0.01622058    -0.65500
O703        O  0.46817579  0.51794473  0.47530249    -1.12100
C704        C  0.07846972  0.96615611  0.42764090     1.06000
O705        O  0.49582369  0.93314766  0.05569993    -0.78800
O706        O  0.04744340  0.97186810  0.05002265    -0.66300
Ni707      Ni  0.43794657  0.54260627  0.43551361     1.34900
C708        C  0.04902253  0.50077008  0.04599608     0.84800
O709        O  0.41282767  0.99289616  0.02308252    -0.79300
O710        O  0.40076044  0.53714980  0.48212829    -0.89600
C711        C  0.46548280  0.92270779  0.04580894     0.84300
O712        O  0.41842696  0.51172905  0.39359975    -0.67800
O713        O  0.06832528  0.94612151  0.45913844    -0.87100
C714        C  0.41736039  0.98276704  0.39704177     0.85200
C715        C  0.39612083  0.51789688  0.01411485     1.06700
H716        H  0.49206994  0.95397887  0.43734779     0.38500
O717        O  0.49659493  0.96566745  0.46715192    -1.09700
O718        O  0.03639244  0.51546493  0.00924218    -0.66400
Ni719      Ni  0.01709389  0.50559702  0.44650426     1.26300
O720        O  0.42981687  0.96799103  0.43376658    -0.66600
O721        O  0.06130317  0.99088810  0.41871547    -0.78900
C722        C  0.50373439  0.56053772  0.39626951     0.84600
O723        O  0.02903755  0.54653248  0.42579335    -0.66100
Ni724      Ni  0.02727111  0.94110152  0.00852331     1.27400
Ni725      Ni  0.45246204  0.97821255  0.49542976     1.26100
H726        H  0.47709969  0.52913852  0.00488367     0.39100
C727        C  0.42691647  0.83875341  0.28158105     0.03200
C728        C  0.42055682  0.86637835  0.30625144    -0.13000
C729        C  0.42439415  0.89407215  0.28084026     0.00700
C730        C  0.43547553  0.89403844  0.23114002    -0.11500
C731        C  0.44243737  0.86649091  0.20539918     0.03200
C732        C  0.43965511  0.83893283  0.23272235    -0.10900
H733        H  0.40830072  0.86616063  0.34263443     0.08800
H734        H  0.43501954  0.91584927  0.21232000     0.06300
H735        H  0.44413849  0.81685553  0.21593811     0.06100
C736        C  0.45078093  0.83874910  0.07021301     0.03200
C737        C  0.45324461  0.86663289  0.04452874    -0.13000
C738        C  0.45434955  0.89434283  0.07088182     0.00700
C739        C  0.45250953  0.89398718  0.12285743    -0.11500
C740        C  0.44741811  0.86638906  0.14960232     0.03200
C741        C  0.44687448  0.83879311  0.12190537    -0.10900
H742        H  0.45798966  0.86659426  0.00481375     0.08800
H743        H  0.45644741  0.91560391  0.14150555     0.06300
H744        H  0.44468767  0.81666431  0.13938942     0.06100
C745        C  0.11183252  0.77410727  0.90148248     0.03200
C746        C  0.13107149  0.79985255  0.91721783    -0.13000
C747        C  0.16143532  0.80943386  0.89269615     0.00700
C748        C  0.17333765  0.79331176  0.85136753    -0.11500
C749        C  0.15572453  0.76660021  0.83593844     0.03200
C750        C  0.12497294  0.75681992  0.86123803    -0.10900
H751        H  0.12211436  0.81341305  0.94853144     0.08800
H752        H  0.19678170  0.80107076  0.83215782     0.06300
H753        H  0.11102189  0.73655301  0.84879219     0.06100
C754        C  0.36287581  0.70779622  0.54062734     0.03200
C755        C  0.34835839  0.72526028  0.57976470    -0.13000
C756        C  0.31762856  0.71481751  0.60454669     0.00700
C757        C  0.30144203  0.68734315  0.58958757    -0.11500
C758        C  0.31481507  0.67088416  0.54957450     0.03200
C759        C  0.34523189  0.68094953  0.52586621    -0.10900
H760        H  0.36109331  0.74627275  0.59154082     0.08800
H761        H  0.27764357  0.67940525  0.60771650     0.06300
H762        H  0.34694313  0.67055558  0.99207559     0.06100
O763        O  0.22677179  0.68188938  0.80341829    -0.80900
O764        O  0.19354273  0.79528050  0.67451003    -0.65500
O765        O  0.22084073  0.71440887  0.71475164    -1.12100
C766        C  0.32580269  0.76690868  0.76264216     1.06000
O767        O  0.24377119  0.79786802  0.63409085    -0.78800
O768        O  0.30037210  0.76122992  0.64245952    -0.66300
Ni769      Ni  0.19093169  0.68956428  0.75458517     1.34900
C770        C  0.30133961  0.73225799  0.64541267     0.84800
O771        O  0.16064072  0.73978337  0.66747926    -0.79300
O772        O  0.15343236  0.69520445  0.70832318    -0.89600
C773        C  0.21401635  0.80919451  0.64476825     0.84300
O774        O  0.17158267  0.72020456  0.79711117    -0.67800
O775        O  0.31561786  0.78698314  0.73125448    -0.87100
C776        C  0.17043101  0.74917350  0.79395004     0.85200
C777        C  0.14325881  0.71522399  0.67676768     1.06700
H778        H  0.24477198  0.77819990  0.75323733     0.38500
O779        O  0.24922305  0.76667253  0.72325221    -1.09700
O780        O  0.28785804  0.71726371  0.68120333    -0.66400
Ni781      Ni  0.26504094  0.72706237  0.74294959     1.26300
O782        O  0.18256748  0.76412246  0.75715253    -0.66600
O783        O  0.30908589  0.74186854  0.77090447    -0.78900
C784        C  0.25729045  0.67184288  0.79335505     0.84600
O785        O  0.27719171  0.68619976  0.76349964    -0.66100
Ni786      Ni  0.27910376  0.79160796  0.68368222     1.27400
Ni787      Ni  0.20503348  0.75420825  0.69512882     1.26100
H788        H  0.22532043  0.70286936  0.68477430     0.39100
C789        C  0.17306443  0.89288348  0.91124315     0.03200
C790        C  0.17094718  0.86512743  0.88562346    -0.13000
C791        C  0.17840151  0.83769595  0.91035306     0.00700
C792        C  0.19083114  0.83833316  0.95947267    -0.11500
C793        C  0.19227009  0.86717799  0.48723136     0.03200
C794        C  0.18361868  0.89320872  0.96106054    -0.10900
H795        H  0.15903159  0.86454140  0.84902919     0.08800
H796        H  0.19609975  0.81648244  0.97665390     0.06300
H797        H  0.18166242  0.91492957  0.97998205     0.06100
C798        C  0.20384756  0.83810752  0.62070895     0.03200
C799        C  0.20308123  0.86550327  0.64792437    -0.13000
C800        C  0.20105975  0.89371541  0.62306391     0.00700
C801        C  0.19700647  0.89428644  0.57131495    -0.11500
C802        C  0.19736447  0.86695801  0.54292813     0.03200
C803        C  0.20242590  0.83910709  0.56882390    -0.10900
H804        H  0.20776462  0.86501024  0.68764741     0.08800
H805        H  0.19490160  0.91656274  0.55422645     0.06300
H806        H  0.20657213  0.81774198  0.54947406     0.06100
C807        C  0.10746694  0.95736753  0.90199183     0.03200
C808        C  0.12477132  0.93016557  0.91576096    -0.13000
C809        C  0.15514918  0.92022093  0.89173597     0.00700
C810        C  0.16853059  0.93693753  0.85202252    -0.11500
C811        C  0.15242824  0.96455962  0.83765672     0.03200
C812        C  0.12196390  0.97502866  0.86304916    -0.10900
H813        H  0.11486558  0.91619465  0.94600124     0.08800
H814        H  0.19227663  0.92907260  0.83366975     0.06300
H815        H  0.10941397  0.49625693  0.85191267     0.06100
C816        C  0.35710482  0.52415144  0.53996187     0.03200
C817        C  0.34399255  0.00700157  0.58030920    -0.13000
C818        C  0.31340943  0.51693594  0.60576749     0.00700
C819        C  0.29595736  0.54379831  0.59049967    -0.11500
C820        C  0.30789349  0.55987986  0.54908954     0.03200
C821        C  0.33804266  0.55001825  0.52430655    -0.10900
H822        H  0.35784875  0.98667296  0.59270581     0.08800
H823        H  0.27264949  0.55169763  0.60988394     0.06300
H824        H  0.35577327  0.56687740  0.99586275     0.06100
O825        O  0.24305778  0.93197048  0.63838424    -0.80900
O826        O  0.27630329  0.54521053  0.76743920    -0.65500
O827        O  0.24895430  0.96436882  0.72720792    -1.12100
C828        C  0.14408919  0.51694399  0.67947722     1.06000
O829        O  0.22615805  0.54795808  0.80807979    -0.78800
O830        O  0.16968117  0.51108427  0.80002435    -0.66300
Ni831      Ni  0.27890526  0.93965079  0.68716468     1.34900
C832        C  0.16857335  0.98212300  0.79679113     0.84800
O833        O  0.30931465  0.98975328  0.77425452    -0.79300
O834        O  0.31649326  0.94522291  0.73331338    -0.89600
C835        C  0.25592747  0.55919507  0.79720379     0.84300
O836        O  0.29796304  0.97046654  0.64469133    -0.67800
O837        O  0.15412863  0.53684042  0.71125318    -0.87100
C838        C  0.29888708  0.49944627  0.64781132     0.85200
C839        C  0.32669071  0.96518293  0.76492975     1.06700
H840        H  0.22489121  0.52823738  0.68905234     0.38500
O841        O  0.22052745  0.51664413  0.71898993    -1.09700
O842        O  0.18181658  0.96721286  0.76070864    -0.66400
Ni843      Ni  0.20475639  0.97706155  0.69904046     1.26300
O844        O  0.28688025  0.51430800  0.68474065    -0.66600
O845        O  0.16082593  0.99195482  0.67097771    -0.78900
C846        C  0.21256116  0.92187192  0.64838390     0.84600
O847        O  0.19261419  0.93620191  0.67823757    -0.66100
Ni848      Ni  0.19070595  0.54154207  0.75869392     1.27400
Ni849      Ni  0.26477530  0.50417168  0.74687530     1.26100
H850        H  0.24447776  0.95277835  0.75717332     0.39100
C851        C  0.26891408  0.64370753  0.81854931     0.03200
C852        C  0.27346260  0.64432544  0.87018828    -0.13000
C853        C  0.27332182  0.61702130  0.89860139     0.00700
C854        C  0.26823029  0.58912433  0.87287648    -0.11500
C855        C  0.26627352  0.58810712  0.82103886     0.03200
C856        C  0.26668531  0.61548659  0.79377368    -0.10900
H857        H  0.27582664  0.66660580  0.88721398     0.08800
H858        H  0.26438477  0.56776540  0.89239402     0.04700
H859        H  0.26163180  0.61496797  0.75414048     0.06100
C860        C  0.29711603  0.64346576  0.52988927     0.03200
C861        C  0.29902176  0.61575798  0.55575993    -0.13000
C862        C  0.29117073  0.58827574  0.53138032     0.00700
C863        C  0.28761554  0.59023340  0.97972165    -0.11500
C864        C  0.27849208  0.61734212  0.95421835     0.03200
C865        C  0.27892649  0.64495185  0.98162734    -0.10900
H866        H  0.31093627  0.61521741  0.59235317     0.08800
H867        H  0.29023516  0.56863323  0.96054882     0.06300
H868        H  0.27306916  0.66671612  0.96451667     0.06100
C869        C  0.10940848  0.70818761  0.65077521     0.03200
C870        C  0.09064573  0.68212774  0.66644204    -0.13000
C871        C  0.06013714  0.67240513  0.64240935     0.00700
C872        C  0.04755870  0.68867167  0.60165094    -0.11500
C873        C  0.06461447  0.71565278  0.58622645     0.03200
C874        C  0.09561274  0.72554473  0.61095352    -0.10900
H875        H  0.09996683  0.66852510  0.69748817     0.08800
H876        H  0.02388123  0.68088210  0.58305251     0.06300
H877        H  0.10914095  0.74603461  0.59854570     0.06100
C878        C  0.35886483  0.77451542  0.78966122     0.03200
C879        C  0.37236783  0.75734236  0.82971232    -0.13000
C880        C  0.40274274  0.76769205  0.85524927     0.00700
C881        C  0.41960745  0.79485527  0.84024792    -0.11500
C882        C  0.40715514  0.81101327  0.79928645     0.03200
C883        C  0.37710876  0.80095213  0.77469734    -0.10900
H884        H  0.35907892  0.73662450  0.84165194     0.08800
H885        H  0.44307095  0.80280235  0.85921000     0.06300
H886        H  0.36790558  0.81445844  0.74347229     0.06100
O887        O  0.49602810  0.79960179  0.55588061    -0.80900
O888        O  0.02816996  0.68731507  0.92634166    -0.65500
O889        O  0.49711334  0.76756599  0.96683419    -1.12100
C890        C  0.39620447  0.71555875  0.51401893     1.06000
O891        O  0.47381377  0.68302243  0.88629648    -0.78800
O892        O  0.41893869  0.72127440  0.89349592    -0.66300
Ni893      Ni  0.02720289  0.79289367  0.50686001     1.34900
C894        C  0.41792800  0.75022820  0.89675698     0.84800
O895        O  0.06080817  0.74266669  0.91904013    -0.79300
O896        O  0.06784812  0.78773757  0.95853597    -0.89600
C897        C  0.50410315  0.67255282  0.89627508     0.84300
O898        O  0.04760040  0.76219271  0.54846194    -0.67800
O899        O  0.40122040  0.69616402  0.98218501    -0.87100
C900        C  0.04893234  0.73323083  0.54498103     0.85200
C901        C  0.07805611  0.76737804  0.92760507     1.06700
H902        H  0.47752850  0.70401198  0.50478411     0.38500
O903        O  0.46871105  0.71529293  0.97519403    -1.09700
O904        O  0.43040282  0.76510701  0.93335734    -0.66400
Ni905      Ni  0.45299808  0.75507580  0.99511457     1.26300
O906        O  0.03613674  0.71837618  0.50851018    -0.66600
O907        O  0.41303180  0.74052449  0.52269713    -0.78900
C908        C  0.46595286  0.81039813  0.54552543     0.84600
O909        O  0.44566078  0.79628753  0.51575477    -0.66100
Ni910      Ni  0.43842959  0.69055883  0.93559040     1.27400
Ni911      Ni  0.01642044  0.72836622  0.94660179     1.26100
H912        H  0.49260674  0.77923211  0.93697894     0.39100
C913        C  0.01861474  0.64446423  0.87230925     0.03200
C914        C  0.51642009  0.61643993  0.89774682    -0.13000
C915        C  0.01581198  0.58882725  0.87185010     0.00700
C916        C  0.01799924  0.58913640  0.81990350    -0.11500
C917        C  0.02277698  0.61674991  0.79306969     0.03200
C918        C  0.02275548  0.64437743  0.82066333    -0.10900
H919        H  0.51150657  0.61638595  0.93742163     0.08800
H920        H  0.01454418  0.56743264  0.80135278     0.06300
H921        H  0.02468635  0.66650218  0.80311805     0.06100
C922        C  0.04561658  0.58903363  0.66168834     0.03200
C923        C  0.03481201  0.58909201  0.71151079    -0.13000
C924        C  0.02789725  0.61664785  0.73726379     0.00700
C925        C  0.03062412  0.64420271  0.70985639    -0.11500
C926        C  0.04299418  0.64437215  0.66076831     0.03200
C927        C  0.04930496  0.61671350  0.63617145    -0.10900
H928        H  0.03533288  0.56727869  0.73030740     0.08800
H929        H  0.02635214  0.66629767  0.72667345     0.06300
H930        H  0.06138780  0.61689622  0.59967466     0.06100
C931        C  0.11120631  0.52472344  0.65221610     0.03200
C932        C  0.09784262  0.00770202  0.61190604    -0.13000
C933        C  0.06760452  0.51817565  0.58619730     0.00700
C934        C  0.05080458  0.54538812  0.60124205    -0.11500
C935        C  0.06309955  0.56138320  0.64250540     0.03200
C936        C  0.09300832  0.55116640  0.66723079    -0.10900
H937        H  0.11110224  0.98696888  0.59996815     0.08800
H938        H  0.02744236  0.55344821  0.58216391     0.06300
H939        H  0.10213066  0.56454891  0.69864311     0.06100
C940        C  0.36050983  0.95801042  0.79101898     0.03200
C941        C  0.37920546  0.93185633  0.77546059    -0.13000
C942        C  0.40965848  0.92205935  0.79963387     0.00700
C943        C  0.42218636  0.93827697  0.84043048    -0.11500
C944        C  0.40519348  0.96527393  0.85581292     0.03200
C945        C  0.37430350  0.97530047  0.83092882    -0.10900
H946        H  0.36989611  0.91827081  0.74439036     0.08800
H947        H  0.44582254  0.93043805  0.85908495     0.06300
H948        H  0.36085899  0.49584591  0.84327519     0.06100
O949        O  0.47878849  0.54885405  0.88571924    -0.80900
O950        O  0.44076704  0.93727667  0.51636714    -0.65500
O951        O  0.47272504  0.51747689  0.97496667    -1.12100
C952        C  0.07447940  0.96540748  0.92926354     1.06000
O953        O  0.49110297  0.93441158  0.55647637    -0.78800
O954        O  0.05132196  0.97173636  0.54782676    -0.66300
Ni955      Ni  0.44310530  0.54230520  0.93494613     1.34900
C956        C  0.05235558  0.50071069  0.54466616     0.84800
O957        O  0.40822053  0.99268274  0.52315180    -0.79300
O958        O  0.40632920  0.53756445  0.98207986    -0.89600
C959        C  0.46116977  0.92329646  0.54602968     0.84300
O960        O  0.42232531  0.51172780  0.89359017    -0.67800
O961        O  0.06452819  0.94590336  0.96180366    -0.87100
C962        C  0.42096999  0.98277934  0.89704417     0.85200
C963        C  0.39077333  0.51717084  0.51379584     1.06700
H964        H  0.49652868  0.95371680  0.93673185     0.38500
O965        O  0.50109386  0.96520458  0.96672448    -1.09700
O966        O  0.03974726  0.51562126  0.50820678    -0.66400
Ni967      Ni  0.01340077  0.50523752  0.94769841     1.26300
O968        O  0.43389872  0.96788542  0.93340319    -0.66600
O969        O  0.05747064  0.99017563  0.91985573    -0.78900
C970        C  0.50875011  0.55983848  0.89642201     0.84600
O971        O  0.02521981  0.54612798  0.92635245    -0.66100
Ni972      Ni  0.03124597  0.94104105  0.50606238     1.27400
Ni973      Ni  0.45692514  0.97789360  0.99506619     1.26100
H974        H  0.47279053  0.52960070  0.50515881     0.39100
C975        C  0.42460623  0.83871143  0.78036076     0.03200
C976        C  0.42061413  0.86636442  0.80587650    -0.13000
C977        C  0.42693043  0.89405903  0.78139011     0.00700
C978        C  0.43969458  0.89395825  0.73252719    -0.11500
C979        C  0.44246513  0.86643939  0.70505879     0.03200
C980        C  0.43557930  0.83883696  0.73064334    -0.10900
H981        H  0.40833826  0.86647943  0.84224525     0.08800
H982        H  0.44426488  0.91605833  0.71585769     0.06300
H983        H  0.43511807  0.81705995  0.71170859     0.06100
C984        C  0.45501748  0.83883331  0.57055150     0.03200
C985        C  0.45406967  0.86660176  0.54433019    -0.13000
C986        C  0.45094429  0.89440630  0.57013018     0.00700
C987        C  0.44656900  0.89423128  0.62171751    -0.11500
C988        C  0.44748594  0.86662409  0.64930135     0.03200
C989        C  0.45294608  0.83910510  0.62250263    -0.10900
H990        H  0.45915629  0.86675894  0.50469886     0.08800
H991        H  0.44370297  0.91628857  0.63925272     0.06300
H992        H  0.45692206  0.81747859  0.64110722     0.06100
C993        C  0.61232193  0.27436177  0.40198699     0.03200
C994        C  0.63140030  0.30023712  0.41753923    -0.13000
C995        C  0.66165267  0.30995278  0.39284352     0.00700
C996        C  0.67349165  0.29388188  0.35138978    -0.11500
C997        C  0.65588009  0.26713446  0.33605354     0.03200
C998        C  0.62531647  0.25723465  0.36155631    -0.10900
H999        H  0.62242035  0.31376603  0.44887548     0.08800
H1000       H  0.69684916  0.30169104  0.33202602     0.06300
H1001       H  0.61142159  0.23692007  0.34918422     0.06100
C1002       C  0.86230523  0.20819158  0.04099569     0.03200
C1003       C  0.84790906  0.22558065  0.08030126    -0.13000
C1004       C  0.81725162  0.21508863  0.10520762     0.00700
C1005       C  0.80102629  0.18763743  0.09026170    -0.11500
C1006       C  0.81433030  0.17123360  0.05017114     0.03200
C1007       C  0.84469790  0.18131068  0.02637046    -0.10900
H1008       H  0.86064034  0.24660177  0.09204239     0.08800
H1009       H  0.77725638  0.17968303  0.10844992     0.06300
H1010       H  0.84756717  0.17018873  0.49215537     0.06100
O1011       O  0.72637396  0.18191988  0.30386711    -0.80900
O1012       O  0.69302019  0.29535186  0.17411073    -0.65500
O1013       O  0.72048022  0.21455781  0.21512357    -1.12100
C1014       C  0.82526590  0.26726452  0.26314752     1.06000
O1015       O  0.74342826  0.29825499  0.13419414    -0.78800
O1016       O  0.79987202  0.26148956  0.14290443    -0.66300
Ni1017     Ni  0.69052218  0.18980716  0.25513158     1.34900
C1018       C  0.80096724  0.23252930  0.14602526     0.84800
O1019       O  0.66034661  0.23968573  0.16726006    -0.79300
O1020       O  0.65289008  0.19549146  0.20905911    -0.89600
C1021       C  0.71352267  0.30939124  0.14454500     0.84300
O1022       O  0.67170672  0.22067155  0.29763891    -0.67800
O1023       O  0.81506874  0.28726628  0.23165762    -0.87100
C1024       C  0.67037573  0.24961877  0.29409500     0.85200
C1025       C  0.64288277  0.21521942  0.17694047     1.06700
H1026       H  0.74412668  0.27850216  0.25339112     0.38500
O1027       O  0.74869598  0.26692782  0.22344445    -1.09700
O1028       O  0.78756582  0.21754304  0.18188089    -0.66400
Ni1029     Ni  0.76458719  0.22735291  0.24346485     1.26300
O1030       O  0.68204346  0.26443895  0.25689343    -0.66600
O1031       O  0.80855240  0.24224549  0.27154294    -0.78900
C1032       C  0.75695721  0.17201251  0.29386355     0.84600
O1033       O  0.77684234  0.18651105  0.26415734    -0.66100
Ni1034     Ni  0.77861882  0.29191103  0.18400361     1.27400
Ni1035     Ni  0.70462398  0.25431939  0.19509213     1.26100
H1036       H  0.72504315  0.20293448  0.18530750     0.39100
C1037       C  0.67222299  0.39337804  0.41170523     0.03200
C1038       C  0.67086278  0.36567642  0.38582826    -0.13000
C1039       C  0.67848553  0.33828390  0.41052286     0.00700
C1040       C  0.69064533  0.33899476  0.45976326    -0.11500
C1041       C  0.69190268  0.36718469  0.98664225     0.03200
C1042       C  0.68208473  0.39371263  0.46181661    -0.10900
H1043       H  0.65933609  0.36504272  0.34898922     0.08800
H1044       H  0.69638944  0.31718439  0.47676712     0.06300
H1045       H  0.67946231  0.41530775  0.48098792     0.06100
C1046       C  0.70327055  0.33826977  0.12031384     0.03200
C1047       C  0.70263600  0.36572595  0.14740737    -0.13000
C1048       C  0.70112750  0.39393562  0.12244787     0.00700
C1049       C  0.69722883  0.39445903  0.07063431    -0.11500
C1050       C  0.69714051  0.36705515  0.04235915     0.03200
C1051       C  0.70189565  0.33920510  0.06839520    -0.10900
H1052       H  0.70715618  0.36525267  0.18716628     0.08800
H1053       H  0.69549894  0.41672606  0.05342616     0.06300
H1054       H  0.70585713  0.31779214  0.04909495     0.06100
C1055       C  0.60645835  0.45756205  0.40056079     0.03200
C1056       C  0.62379016  0.43049350  0.41494225    -0.13000
C1057       C  0.65443365  0.42059171  0.39167956     0.00700
C1058       C  0.66816163  0.43719248  0.35213030    -0.11500
C1059       C  0.65217220  0.46474624  0.33729187     0.03200
C1060       C  0.62133385  0.47519871  0.36186557    -0.10900
H1061       H  0.61371548  0.41656764  0.44512376     0.08800
H1062       H  0.69211366  0.42931388  0.33433348     0.06300
H1063       H  0.60883994  0.99636811  0.35032593     0.06100
C1064       C  0.85819861  0.02474153  0.04026111     0.03200
C1065       C  0.84486892  0.50743308  0.08032835    -0.13000
C1066       C  0.81419246  0.01732911  0.10565523     0.00700
C1067       C  0.79683688  0.04421723  0.09045585    -0.11500
C1068       C  0.80895248  0.06040240  0.04930620     0.03200
C1069       C  0.83928452  0.05072481  0.02480038    -0.10900
H1070       H  0.85860227  0.48700863  0.09258156     0.08800
H1071       H  0.77339708  0.05202691  0.10962115     0.06300
H1072       H  0.85488855  0.06667820  0.49611861     0.06100
O1073       O  0.74331930  0.43212469  0.13791018    -0.80900
O1074       O  0.77650688  0.04551295  0.26715591    -0.65500
O1075       O  0.74942849  0.46459256  0.22683103    -1.12100
C1076       C  0.64394772  0.01670713  0.18009991     1.06000
O1077       O  0.72643350  0.04795765  0.30799013    -0.78800
O1078       O  0.66979463  0.01116627  0.29982257    -0.66300
Ni1079     Ni  0.77934045  0.43998691  0.18656083     1.34900
C1080       C  0.66878198  0.48220414  0.29672836     0.84800
O1081       O  0.80968850  0.49017139  0.27378379    -0.79300
O1082       O  0.81709227  0.44575990  0.23255027    -0.89600
C1083       C  0.75613694  0.05933942  0.29712533     0.84300
O1084       O  0.79824160  0.47083160  0.14403503    -0.67800
O1085       O  0.65420884  0.03688461  0.21129855    -0.87100
C1086       C  0.79937563  0.99978978  0.14743086     0.85200
C1087       C  0.82721882  0.46572699  0.26425690     1.06700
H1088       H  0.72500082  0.02832599  0.18877239     0.38500
O1089       O  0.72072208  0.01675126  0.21881344    -1.09700
O1090       O  0.68241212  0.46722006  0.26100216    -0.66400
Ni1091     Ni  0.70501910  0.47709834  0.19910142     1.26300
O1092       O  0.78730318  0.01460985  0.18439414    -0.66600
O1093       O  0.66074848  0.49173240  0.17172777    -0.78900
C1094       C  0.71280031  0.42203248  0.14796384     0.84600
O1095       O  0.69302999  0.43618494  0.17830528    -0.66100
Ni1096     Ni  0.69091462  0.04161066  0.25861374     1.27400
Ni1097     Ni  0.76510871  0.00444386  0.24649660     1.26100
H1098       H  0.74514717  0.45298767  0.25674854     0.39100
C1099       C  0.76868180  0.14386499  0.31901436     0.03200
C1100       C  0.77299817  0.14438302  0.37071031    -0.13000
C1101       C  0.77304591  0.11700664  0.39900457     0.00700
C1102       C  0.76821111  0.08915022  0.37303011    -0.11500
C1103       C  0.76637589  0.08823948  0.32116919     0.03200
C1104       C  0.76674137  0.11568279  0.29406678    -0.10900
H1105       H  0.77496706  0.16665863  0.38781926     0.08800
H1106       H  0.76446366  0.06770494  0.39229135     0.04700
H1107       H  0.76182024  0.11522609  0.25439986     0.06100
C1108       C  0.79669586  0.14380899  0.03050003     0.03200
C1109       C  0.79905119  0.11608281  0.05616006    -0.13000
C1110       C  0.79196860  0.08859059  0.03142582     0.00700
C1111       C  0.78652565  0.08994889  0.48036843    -0.11500
C1112       C  0.77815644  0.11721825  0.45470867     0.03200
C1113       C  0.77940338  0.14483812  0.48204959    -0.10900
H1114       H  0.81084216  0.11560618  0.09283962     0.08800
H1115       H  0.78851429  0.06824777  0.46138911     0.06300
H1116       H  0.77416841  0.16671365  0.46494414     0.06100
C1117       C  0.60919609  0.20790228  0.15064189     0.03200
C1118       C  0.59056919  0.18168173  0.16605343    -0.13000
C1119       C  0.56009701  0.17191677  0.14188659     0.00700
C1120       C  0.54755783  0.18817657  0.10112430    -0.11500
C1121       C  0.56457790  0.21517375  0.08577276     0.03200
C1122       C  0.59543017  0.22519422  0.11072810    -0.10900
H1123       H  0.59990478  0.16805697  0.19706384     0.08800
H1124       H  0.52390623  0.18037254  0.08247255     0.06300
H1125       H  0.60885217  0.24577048  0.09846838     0.06100
C1126       C  0.85832873  0.27496011  0.29011656     0.03200
C1127       C  0.87212541  0.25766615  0.32985006    -0.13000
C1128       C  0.90250925  0.26808590  0.35531023     0.00700
C1129       C  0.91905834  0.29545730  0.34052859    -0.11500
C1130       C  0.90637245  0.31170589  0.29979353     0.03200
C1131       C  0.87632293  0.30157329  0.27531861    -0.10900
H1132       H  0.85906110  0.23679760  0.34159423     0.08800
H1133       H  0.94253282  0.30346561  0.35939270     0.06300
H1134       H  0.86697192  0.31512913  0.24423926     0.06100
O1135       O  0.99556042  0.30017953  0.05518512    -0.80900
O1136       O  0.52904807  0.18723616  0.42579365    -0.65500
O1137       O  0.99744037  0.26807182  0.46695074    -1.12100
C1138       C  0.89545933  0.21606354  0.01404854     1.06000
O1139       O  0.97455011  0.18410666  0.38588021    -0.78800
O1140       O  0.91880339  0.22159543  0.39353933    -0.66300
Ni1141     Ni  0.52698849  0.29234062  0.00662901     1.34900
C1142       C  0.91799040  0.25057217  0.39660675     0.84800
O1143       O  0.56142961  0.24273205  0.41905116    -0.79300
O1144       O  0.56886626  0.28717956  0.46022439    -0.89600
C1145       C  0.00471300  0.17344043  0.39614013     0.84300
O1146       O  0.54751453  0.26167487  0.04807550    -0.67800
O1147       O  0.90189732  0.19595527  0.48208171    -0.87100
C1148       C  0.54886734  0.23272904  0.04454236     0.85200
C1149       C  0.57880378  0.26726768  0.42839914     1.06700
H1150       H  0.97659548  0.20439582  0.00466159     0.38500
O1151       O  0.96904745  0.21576258  0.47500242    -1.09700
O1152       O  0.93088548  0.26546553  0.43289280    -0.66400
Ni1153     Ni  0.95321570  0.25545072  0.49481746     1.26300
O1154       O  0.53602131  0.21788268  0.00808568    -0.66600
O1155       O  0.91238005  0.24096132  0.02283644    -0.78900
C1156       C  0.96529092  0.31077600  0.04540182     0.84600
O1157       O  0.94494796  0.29668873  0.01567339    -0.66100
Ni1158     Ni  0.93902340  0.19094510  0.43520402     1.27400
Ni1159     Ni  0.51722675  0.22814941  0.44668735     1.26100
H1160       H  0.99302580  0.27972163  0.43704706     0.39100
C1161       C  0.51930325  0.14442176  0.37175441     0.03200
C1162       C  0.01674934  0.11736836  0.39769494    -0.13000
C1163       C  0.51501908  0.08886255  0.37120910     0.00700
C1164       C  0.51685267  0.08918462  0.31925395    -0.11500
C1165       C  0.52241444  0.11669986  0.29248935     0.03200
C1166       C  0.52339677  0.14430051  0.32009480    -0.10900
H1167       H  0.01180910  0.11733548  0.43736536     0.08800
H1168       H  0.51253922  0.06761884  0.30060368     0.06300
H1169       H  0.52605420  0.16636785  0.30250982     0.06100
C1170       C  0.54534061  0.08860517  0.16159379     0.03200
C1171       C  0.53444598  0.08884351  0.21133467    -0.13000
C1172       C  0.52740419  0.11647065  0.23673398     0.00700
C1173       C  0.53005698  0.14393538  0.20911558    -0.11500
C1174       C  0.54278598  0.14395185  0.16020941     0.03200
C1175       C  0.54916138  0.11620556  0.13586309    -0.10900
H1176       H  0.53510382  0.06713377  0.23046369     0.08800
H1177       H  0.52547326  0.16605083  0.22574367     0.06300
H1178       H  0.56138520  0.11626159  0.09945999     0.06100
C1179       C  0.61078448  0.02414316  0.15319539     0.03200
C1180       C  0.59724452  0.50681695  0.11329838    -0.13000
C1181       C  0.56708293  0.01725105  0.08730436     0.00700
C1182       C  0.55041633  0.04461171  0.10190670    -0.11500
C1183       C  0.56278831  0.06083775  0.14286499     0.03200
C1184       C  0.59264474  0.05069286  0.16781463    -0.10900
H1185       H  0.61044432  0.48598486  0.10169366     0.08800
H1186       H  0.52713199  0.05267421  0.08264147     0.06300
H1187       H  0.60183549  0.06426136  0.19897985     0.06100
C1188       C  0.86112038  0.45875145  0.29030618     0.03200
C1189       C  0.87976035  0.43249811  0.27514140    -0.13000
C1190       C  0.91028644  0.42288093  0.29930484     0.00700
C1191       C  0.92298859  0.43940854  0.33967488    -0.11500
C1192       C  0.90591323  0.46640709  0.35490948     0.03200
C1193       C  0.87498764  0.47628794  0.32992765    -0.10900
H1194       H  0.87032514  0.41866487  0.24443414     0.08800
H1195       H  0.94666549  0.43167656  0.35834174     0.06300
H1196       H  0.86149867  0.99684778  0.34210107     0.06100
O1197       O  0.97851625  0.05023330  0.38616193    -0.80900
O1198       O  0.94128855  0.43744487  0.01626761    -0.65500
O1199       O  0.97295889  0.01823725  0.47488124    -1.12100
C1200       C  0.57326336  0.46548163  0.42741976     1.06000
O1201       O  0.99125805  0.43452759  0.05731232    -0.78800
O1202       O  0.55139933  0.47084089  0.04817076    -0.66300
Ni1203     Ni  0.94301812  0.04322907  0.43547722     1.34900
C1204       C  0.55200007  0.99984205  0.04552279     0.84800
O1205       O  0.90890820  0.49294074  0.02281112    -0.79300
O1206       O  0.90615897  0.03810854  0.48261634    -0.89600
C1207       C  0.96137269  0.42347488  0.04635728     0.84300
O1208       O  0.92254530  0.01279926  0.39350328    -0.67800
O1209       O  0.56318544  0.44574622  0.45946923    -0.87100
C1210       C  0.92137859  0.48382711  0.39653205     0.85200
C1211       C  0.89182792  0.01770964  0.01402482     1.06700
H1212       H  0.99663773  0.45434891  0.43646154     0.38500
O1213       O  0.00121676  0.46591221  0.46637239    -1.09700
O1214       O  0.53915837  0.01484036  0.00928553    -0.66400
Ni1215     Ni  0.51229656  0.00526262  0.44681844     1.26300
O1216       O  0.93415643  0.46882006  0.43289366    -0.66600
O1217       O  0.55634935  0.49036936  0.41851693    -0.78900
C1218       C  0.00872605  0.06084260  0.39640249     0.84600
O1219       O  0.52401718  0.04618244  0.42571112    -0.66100
Ni1220     Ni  0.53122469  0.44028929  0.00620243     1.27400
Ni1221     Ni  0.95708371  0.47857952  0.49476860     1.26100
H1222       H  0.97374205  0.02960892  0.00576748     0.39100
C1223       C  0.92388479  0.33933046  0.28061930     0.03200
C1224       C  0.92025316  0.36707074  0.30602294    -0.13000
C1225       C  0.92732897  0.39465439  0.28158452     0.00700
C1226       C  0.94039772  0.39431499  0.23289927    -0.11500
C1227       C  0.94255170  0.36676174  0.20541212     0.03200
C1228       C  0.93495206  0.33927963  0.23092185    -0.10900
H1229       H  0.90780612  0.36739809  0.34227214     0.08800
H1230       H  0.94561752  0.41632706  0.21629859     0.06300
H1231       H  0.93412529  0.31752811  0.21191119     0.06100
C1232       C  0.95433924  0.33910795  0.07074126     0.03200
C1233       C  0.95329424  0.36689470  0.04458411    -0.13000
C1234       C  0.95079459  0.39469787  0.07048722     0.00700
C1235       C  0.94684324  0.39452830  0.12213039    -0.11500
C1236       C  0.94754135  0.36690093  0.14965124     0.03200
C1237       C  0.95262258  0.33935110  0.12276225    -0.10900
H1238       H  0.95804165  0.36705000  0.00486899     0.08800
H1239       H  0.94439821  0.41660453  0.13973127     0.06300
H1240       H  0.95657248  0.31771421  0.14137779     0.06100
C1241       C  0.60683844  0.27583152  0.90012530     0.03200
C1242       C  0.62443365  0.30270740  0.91496365    -0.13000
C1243       C  0.65491786  0.31279104  0.89141517     0.00700
C1244       C  0.66828407  0.29643203  0.85129003    -0.11500
C1245       C  0.65204216  0.26904225  0.83608491     0.03200
C1246       C  0.62128916  0.25854499  0.86074847    -0.10900
H1247       H  0.61460891  0.31637991  0.94560479     0.08800
H1248       H  0.69215063  0.30434817  0.83331346     0.06300
H1249       H  0.60858488  0.23754105  0.84886273     0.06100
C1250       C  0.85805247  0.20927292  0.53955170     0.03200
C1251       C  0.84512541  0.22638805  0.58010337    -0.13000
C1252       C  0.81458413  0.21646739  0.60573287     0.00700
C1253       C  0.79709117  0.18964461  0.59050929    -0.11500
C1254       C  0.80875267  0.17368945  0.54884925     0.03200
C1255       C  0.83880137  0.18354656  0.52380584    -0.10900
H1256       H  0.85905562  0.24668617  0.59246375     0.08800
H1257       H  0.77383080  0.18174417  0.61000447     0.06300
H1258       H  0.85446087  0.16758574  0.99574651     0.06100
O1259       O  0.72633329  0.18615457  0.80801485    -0.80900
O1260       O  0.69298767  0.29714957  0.67708332    -0.65500
O1261       O  0.72092276  0.21687532  0.71836709    -1.12100
C1262       C  0.82678888  0.26869816  0.76437187     1.06000
O1263       O  0.74341528  0.30123721  0.63714773    -0.78800
O1264       O  0.79875147  0.26300947  0.64412079    -0.66300
Ni1265     Ni  0.69108504  0.19205438  0.75817673     1.34900
C1266       C  0.79982729  0.23404303  0.64755375     0.84800
O1267       O  0.66107949  0.24138791  0.67039830    -0.79300
O1268       O  0.65469936  0.19635712  0.71040961    -0.89600
C1269       C  0.71301006  0.31149011  0.64736045     0.84300
O1270       O  0.66954802  0.22258395  0.79875796    -0.67800
O1271       O  0.81668278  0.28859389  0.73257098    -0.87100
C1272       C  0.66852351  0.25153779  0.79547975     0.85200
C1273       C  0.64444957  0.21633121  0.67890467     1.06700
H1274       H  0.74476185  0.28087880  0.75597568     0.38500
O1275       O  0.74928330  0.26920537  0.72617926    -1.09700
O1276       O  0.78755471  0.21925338  0.68443370    -0.66400
Ni1277     Ni  0.76508227  0.22951789  0.74633273     1.26300
O1278       O  0.68216969  0.26643185  0.75969334    -0.66600
O1279       O  0.80943764  0.24413627  0.77378108    -0.78900
C1280       C  0.75608510  0.17477208  0.79746785     0.84600
O1281       O  0.77656736  0.18856858  0.76758790    -0.66100
Ni1282     Ni  0.77924527  0.29388389  0.68609912     1.27400
Ni1283     Ni  0.70509845  0.25637334  0.69812279     1.26100
H1284       H  0.72540222  0.20520526  0.68851279     0.39100
C1285       C  0.67843176  0.39533184  0.91001640     0.03200
C1286       C  0.67077959  0.36787290  0.88548515    -0.13000
C1287       C  0.67266485  0.34015396  0.91128283     0.00700
C1288       C  0.68302445  0.33993325  0.96123846    -0.11500
C1289       C  0.69107344  0.36658196  0.48730290     0.03200
C1290       C  0.69091853  0.39474632  0.95910715    -0.10900
H1291       H  0.65892510  0.36843528  0.84884963     0.08800
H1292       H  0.68081997  0.31831084  0.98042606     0.06300
H1293       H  0.69643142  0.41660622  0.97610547     0.06100
C1294       C  0.70159082  0.33982509  0.62257700     0.03200
C1295       C  0.70393837  0.36792657  0.64767504    -0.13000
C1296       C  0.70359847  0.39546803  0.62084253     0.00700
C1297       C  0.70101116  0.39470973  0.56901374    -0.11500
C1298       C  0.69624992  0.36684490  0.54295537     0.03200
C1299       C  0.69659923  0.33942660  0.57105398    -0.10900
H1300       H  0.70944373  0.36826439  0.68719335     0.08800
H1301       H  0.70423977  0.41624224  0.54979780     0.06300
H1302       H  0.69424645  0.31719912  0.55387415     0.06100
C1303       C  0.61212578  0.45911523  0.90181774     0.03200
C1304       C  0.63132030  0.43330473  0.91727449    -0.13000
C1305       C  0.66149696  0.42363236  0.89239829     0.00700
C1306       C  0.67330184  0.43980466  0.85102501    -0.11500
C1307       C  0.65578922  0.46666949  0.83596187     0.03200
C1308       C  0.62516938  0.47645851  0.86156334    -0.10900
H1309       H  0.62245491  0.41975756  0.94865634     0.08800
H1310       H  0.69662046  0.43200072  0.83156448     0.06300
H1311       H  0.61124584  0.99679694  0.84935633     0.06100
C1312       C  0.86273084  0.02602407  0.54125018     0.03200
C1313       C  0.84824195  0.50854168  0.58040825    -0.13000
C1314       C  0.81745330  0.01891269  0.60517295     0.00700
C1315       C  0.80110654  0.04629159  0.59009409    -0.11500
C1316       C  0.81449507  0.06280747  0.55014419     0.03200
C1317       C  0.84505044  0.05287810  0.52660202    -0.10900
H1318       H  0.86102121  0.48755101  0.59218858     0.08800
H1319       H  0.77722251  0.05412292  0.60812571     0.06300
H1320       H  0.84839810  0.06431975  0.99361533     0.06100
O1321       O  0.74389483  0.43538201  0.63451556    -0.80900
O1322       O  0.77698063  0.04747417  0.76438145    -0.65500
O1323       O  0.74910198  0.46694654  0.72368850    -1.12100
C1324       C  0.64319762  0.01813993  0.67650606     1.06000
O1325       O  0.72628510  0.05229298  0.80354998    -0.78800
O1326       O  0.67175647  0.01321252  0.79748622    -0.66300
Ni1327     Ni  0.77910713  0.44204051  0.68419855     1.34900
C1328       C  0.67042663  0.48424841  0.79403678     0.84800
O1329       O  0.80878463  0.49175496  0.77205302    -0.79300
O1330       O  0.81562992  0.44694931  0.73166677    -0.89600
C1331       C  0.75698026  0.06206954  0.79383559     0.84300
O1332       O  0.80001327  0.47249314  0.64280987    -0.67800
O1333       O  0.65311715  0.03797595  0.70850417    -0.87100
C1334       C  0.80122781  0.00144432  0.64606303     0.85200
C1335       C  0.82567406  0.46685546  0.76340956     1.06700
H1336       H  0.72540883  0.03081691  0.68515737     0.38500
O1337       O  0.72079104  0.01925178  0.71503150    -1.09700
O1338       O  0.68229319  0.46941454  0.75695373    -0.66400
Ni1339     Ni  0.70504947  0.47940732  0.69517628     1.26300
O1340       O  0.78803036  0.01639330  0.68213277    -0.66600
O1341       O  0.66081104  0.49376399  0.66695746    -0.78900
C1342       C  0.71398272  0.42430573  0.64495768     0.84600
O1343       O  0.69353533  0.43835930  0.67453286    -0.66100
Ni1344     Ni  0.69060114  0.04399870  0.75470488     1.27400
Ni1345     Ni  0.76486677  0.00658176  0.74366599     1.26100
H1346       H  0.74452612  0.45536698  0.75363282     0.39100
C1347       C  0.76616733  0.14582288  0.82151685     0.03200
C1348       C  0.76787261  0.14482403  0.87337667    -0.13000
C1349       C  0.77294556  0.11694960  0.89923009     0.00700
C1350       C  0.77305292  0.08961120  0.87082579    -0.11500
C1351       C  0.76870312  0.09019367  0.81912107     0.03200
C1352       C  0.76666318  0.11842058  0.79430704    -0.10900
H1353       H  0.76392643  0.16621604  0.89271549     0.08800
H1354       H  0.77513089  0.06732330  0.88787297     0.04700
H1355       H  0.76179150  0.11893466  0.75463115     0.06100
C1356       C  0.79175717  0.14543108  0.53117707     0.03200
C1357       C  0.79896466  0.11796627  0.55596475    -0.13000
C1358       C  0.79677206  0.09019537  0.53035263     0.00700
C1359       C  0.77970091  0.08908884  0.98223668    -0.11500
C1360       C  0.77817348  0.11670754  0.95491390     0.03200
C1361       C  0.78637387  0.14400957  0.98056242    -0.10900
H1362       H  0.81074461  0.11851483  0.59264532     0.08800
H1363       H  0.77468904  0.06718237  0.96509650     0.06300
H1364       H  0.78820739  0.16572358  0.96159390     0.06100
C1365       C  0.61141376  0.20858185  0.65203571     0.03200
C1366       C  0.59323518  0.18217034  0.66723820    -0.13000
C1367       C  0.56326491  0.17194187  0.64265910     0.00700
C1368       C  0.55086323  0.18790565  0.60143457    -0.11500
C1369       C  0.56757609  0.21513898  0.58639426     0.03200
C1370       C  0.59787075  0.22562960  0.61191567    -0.10900
H1371       H  0.60245559  0.16880484  0.69861246     0.08800
H1372       H  0.52748297  0.17982402  0.58242165     0.06300
H1373       H  0.61106089  0.24638603  0.59993091     0.06100
C1374       C  0.86051433  0.27583955  0.79058436     0.03200
C1375       C  0.87425326  0.25839204  0.83033165    -0.13000
C1376       C  0.90514847  0.26827444  0.85529139     0.00700
C1377       C  0.92227451  0.29523526  0.84003896    -0.11500
C1378       C  0.90979030  0.31158393  0.79936284     0.03200
C1379       C  0.87924027  0.30199654  0.77523244    -0.10900
H1380       H  0.86074401  0.23784328  0.84252139     0.08800
H1381       H  0.94594542  0.30296041  0.85872761     0.06300
H1382       H  0.86992115  0.31570930  0.74431077     0.06100
O1383       O  0.99146926  0.29982919  0.55595851    -0.80900
O1384       O  0.52449606  0.18694396  0.92553610    -0.65500
O1385       O  0.00070253  0.26817788  0.96613962    -1.12100
C1386       C  0.89169893  0.21616568  0.51327367     1.06000
O1387       O  0.97798870  0.18418378  0.88583908    -0.78800
O1388       O  0.92189950  0.22177198  0.89332285    -0.66300
Ni1389     Ni  0.53161390  0.29245142  0.50677768     1.34900
C1390       C  0.92069924  0.25073818  0.89663071     0.84800
O1391       O  0.55684984  0.24284728  0.91815839    -0.79300
O1392       O  0.56371592  0.28739170  0.95933113    -0.89600
C1393       C  0.00796062  0.17321666  0.89656292     0.84300
O1394       O  0.55118949  0.26160738  0.54854620    -0.67800
O1395       O  0.90553917  0.19625254  0.98213187    -0.87100
C1396       C  0.55226445  0.23266667  0.54505713     0.85200
C1397       C  0.57374333  0.26775100  0.92711686     1.06700
H1398       H  0.97356707  0.20417461  0.50493212     0.38500
O1399       O  0.97218797  0.21599630  0.97470488    -1.09700
O1400       O  0.93356614  0.26564800  0.93299534    -0.66400
Ni1401     Ni  0.95653353  0.25568537  0.99465426     1.26300
O1402       O  0.53979169  0.21789000  0.50836761    -0.66600
O1403       O  0.90889662  0.24086891  0.52210911    -0.78900
C1404       C  0.96137320  0.31058306  0.54530930     0.84600
O1405       O  0.94126526  0.29638918  0.51548967    -0.66100
Ni1406     Ni  0.94234610  0.19116478  0.93500376     1.27400
Ni1407     Ni  0.51281769  0.22792738  0.94658449     1.26100
H1408       H  0.99616045  0.27966385  0.93611241     0.39100
C1409       C  0.51517577  0.14412966  0.87133635     0.03200
C1410       C  0.01630332  0.11659944  0.89811727    -0.13000
C1411       C  0.51934407  0.08856495  0.87209729     0.00700
C1412       C  0.52367077  0.08861816  0.82046283    -0.11500
C1413       C  0.52279477  0.11619740  0.79277821     0.03200
C1414       C  0.51702632  0.14372233  0.81938731    -0.10900
H1415       H  0.01133172  0.11665702  0.93777878     0.08800
H1416       H  0.52644250  0.06653463  0.80295306     0.06300
H1417       H  0.51266987  0.16523425  0.80057706     0.06100
C1418       C  0.54296465  0.08898746  0.66039177     0.03200
C1419       C  0.53054836  0.08898573  0.70944924    -0.13000
C1420       C  0.52804326  0.11643598  0.73708674     0.00700
C1421       C  0.53532508  0.14404953  0.71174311    -0.11500
C1422       C  0.54585508  0.14427701  0.66182263     0.03200
C1423       C  0.54923902  0.11670187  0.63596661    -0.10900
H1424       H  0.52603889  0.06686914  0.72612146     0.08800
H1425       H  0.53632594  0.16571511  0.73099031     0.06300
H1426       H  0.56116417  0.11661571  0.59936285     0.06100
C1427       C  0.60941070  0.02523523  0.65030076     0.03200
C1428       C  0.59563180  0.50799002  0.61030695    -0.13000
C1429       C  0.56469992  0.01804084  0.58549562     0.00700
C1430       C  0.54773986  0.04502716  0.60093968    -0.11500
C1431       C  0.56021265  0.06109068  0.64189517     0.03200
C1432       C  0.59064848  0.05128435  0.66601325    -0.10900
H1433       H  0.60906217  0.48744707  0.59791775     0.08800
H1434       H  0.52410774  0.05291758  0.58232944     0.06300
H1435       H  0.59989006  0.06480899  0.69719340     0.06100
C1436       C  0.85876210  0.45915401  0.79035651     0.03200
C1437       C  0.87688267  0.43268406  0.77522955    -0.13000
C1438       C  0.90691345  0.42245601  0.79966036     0.00700
C1439       C  0.91940945  0.43844495  0.84080666    -0.11500
C1440       C  0.90278337  0.46573299  0.85587183     0.03200
C1441       C  0.87243828  0.47624884  0.83039172    -0.10900
H1442       H  0.86759635  0.41927066  0.74395105     0.08800
H1443       H  0.94281466  0.43033926  0.85973117     0.06300
H1444       H  0.85931173  0.99704494  0.84234799     0.06100
O1445       O  0.97473462  0.04965292  0.88660188    -0.80900
O1446       O  0.94531417  0.43759114  0.51554268    -0.65500
O1447       O  0.96921510  0.01801836  0.97582071    -1.12100
C1448       C  0.57846619  0.46586276  0.92819519     1.06000
O1449       O  0.99576027  0.43396245  0.55543871    -0.78800
O1450       O  0.54740973  0.47156089  0.54805126    -0.66300
Ni1451     Ni  0.93923154  0.04283198  0.93596459     1.34900
C1452       C  0.54871225  0.00049726  0.54449286     0.84800
O1453       O  0.91295293  0.49334992  0.52307749    -0.79300
O1454       O  0.90211703  0.03787757  0.98283993    -0.89600
C1455       C  0.96554357  0.42336768  0.54524404     0.84300
O1456       O  0.91901880  0.01215863  0.89432745    -0.67800
O1457       O  0.56826425  0.44552335  0.95917274    -0.87100
C1458       C  0.91821265  0.48317535  0.89731527     0.85200
C1459       C  0.89601346  0.01824680  0.51440326     1.06700
H1460       H  0.99328034  0.45390670  0.93829249     0.38500
O1461       O  0.99759686  0.46568889  0.96806428    -1.09700
O1462       O  0.53551821  0.01533938  0.50827490    -0.66400
Ni1463     Ni  0.51694482  0.00496627  0.94715068     1.26300
O1464       O  0.93107993  0.46826165  0.93360534    -0.66600
O1465       O  0.56128249  0.49059691  0.91971700    -0.78900
C1466       C  0.00490224  0.06033471  0.89675817     0.84600
O1467       O  0.52880695  0.04593445  0.92664155    -0.66100
Ni1468     Ni  0.52654085  0.44094247  0.50691858     1.27400
Ni1469     Ni  0.95328023  0.47834668  0.99564138     1.26100
H1470       H  0.97753083  0.02977923  0.50486277     0.39100
C1471       C  0.92716513  0.33952059  0.78116777     0.03200
C1472       C  0.92106530  0.36717202  0.80590259    -0.13000
C1473       C  0.92435029  0.39483886  0.78023476     0.00700
C1474       C  0.93465381  0.39474106  0.73018892    -0.11500
C1475       C  0.94174286  0.36718967  0.70453780     0.03200
C1476       C  0.93943030  0.33967561  0.73204734    -0.10900
H1477       H  0.90928368  0.36697457  0.84259516     0.08800
H1478       H  0.93362091  0.41646526  0.71112843     0.06300
H1479       H  0.94389952  0.31759848  0.71523607     0.06100
C1480       C  0.95056261  0.33933574  0.56947946     0.03200
C1481       C  0.95348301  0.36720893  0.54381307    -0.13000
C1482       C  0.95440586  0.39494077  0.57015545     0.00700
C1483       C  0.95218716  0.39459606  0.62209015    -0.11500
C1484       C  0.94670266  0.36703540  0.64875399     0.03200
C1485       C  0.94603528  0.33943518  0.62107387    -0.10900
H1486       H  0.95861391  0.36713759  0.50419378     0.08800
H1487       H  0.95615448  0.41618220  0.64083573     0.06300
H1488       H  0.94334225  0.31734464  0.63856134     0.06100
C1489       C  0.61232377  0.77436012  0.40199017     0.03200
C1490       C  0.63140222  0.80023534  0.41754293    -0.13000
C1491       C  0.66165435  0.80995136  0.39284681     0.00700
C1492       C  0.67349308  0.79388083  0.35139256    -0.11500
C1493       C  0.65588152  0.76713356  0.33605587     0.03200
C1494       C  0.62531815  0.75723330  0.36155891    -0.10900
H1495       H  0.62242225  0.81376403  0.44887942     0.08800
H1496       H  0.69685035  0.80169027  0.33202849     0.06300
H1497       H  0.61142320  0.73691885  0.34918637     0.06100
C1498       C  0.86230467  0.70819230  0.04099349     0.03200
C1499       C  0.84790970  0.72558079  0.08030070    -0.13000
C1500       C  0.81725244  0.71508894  0.10520782     0.00700
C1501       C  0.80102659  0.68763798  0.09026167    -0.11500
C1502       C  0.81432924  0.67123480  0.05016938     0.03200
C1503       C  0.84469609  0.68131233  0.02636718    -0.10900
H1504       H  0.86064180  0.74660137  0.09204256     0.08800
H1505       H  0.77725725  0.67968328  0.10845104     0.06300
H1506       H  0.84756828  0.67018868  0.49215940     0.06100
O1507       O  0.72637580  0.68192069  0.30386906    -0.80900
O1508       O  0.69302091  0.79535168  0.17411119    -0.65500
O1509       O  0.72048166  0.71455797  0.21512522    -1.12100
C1510       C  0.82526679  0.76726531  0.26314870     1.06000
O1511       O  0.74342905  0.79825524  0.13419439    -0.78800
O1512       O  0.79987322  0.76149000  0.14290518    -0.66300
Ni1513     Ni  0.69052403  0.68980701  0.25513327     1.34900
C1514       C  0.80096857  0.73252971  0.14602607     0.84800
O1515       O  0.66034767  0.73968530  0.16726232    -0.79300
O1516       O  0.65289176  0.69549072  0.20906088    -0.89600
C1517       C  0.71352282  0.80939074  0.14454416     0.84300
O1518       O  0.67170810  0.72067118  0.29764028    -0.67800
O1519       O  0.81506979  0.78726704  0.23165853    -0.87100
C1520       C  0.67037703  0.74961837  0.29409670     0.85200
C1521       C  0.64288405  0.71521889  0.17694284     1.06700
H1522       H  0.74412767  0.77850260  0.25339187     0.38500
O1523       O  0.74869702  0.76692819  0.22344533    -1.09700
O1524       O  0.78756735  0.71754352  0.18188201    -0.66400
Ni1525     Ni  0.76458852  0.72735340  0.24346609     1.26300
O1526       O  0.68204461  0.76443881  0.25689521    -0.66600
O1527       O  0.80855329  0.74224634  0.27154417    -0.78900
C1528       C  0.75695902  0.67201326  0.29386575     0.84600
O1529       O  0.77684410  0.68651165  0.26415925    -0.66100
Ni1530     Ni  0.77861971  0.79191147  0.18400427     1.27400
Ni1531     Ni  0.70462503  0.75431936  0.19509354     1.26100
H1532       H  0.72504475  0.70293450  0.18530887     0.39100
C1533       C  0.67222341  0.89337695  0.41170570     0.03200
C1534       C  0.67086403  0.86567497  0.38582964    -0.13000
C1535       C  0.67848665  0.83828288  0.41052554     0.00700
C1536       C  0.69064549  0.83899453  0.45976628    -0.11500
C1537       C  0.69190759  0.86718415  0.98663823     0.03200
C1538       C  0.68208430  0.89371236  0.46181761    -0.10900
H1539       H  0.65933805  0.86504063  0.34899017     0.08800
H1540       H  0.69638971  0.81718437  0.47677065     0.06300
H1541       H  0.67946178  0.91530776  0.48098805     0.06100
C1542       C  0.70326989  0.83826861  0.12031117     0.03200
C1543       C  0.70263214  0.86572466  0.14740471    -0.13000
C1544       C  0.70112767  0.89393434  0.12244493     0.00700
C1545       C  0.69723389  0.89445801  0.07063069    -0.11500
C1546       C  0.69714540  0.86705421  0.04235538     0.03200
C1547       C  0.70189881  0.83920405  0.06839213    -0.10900
H1548       H  0.70714866  0.86525129  0.18716445     0.08800
H1549       H  0.69550791  0.91672523  0.05342258     0.06300
H1550       H  0.70586170  0.81779111  0.04909245     0.06100
C1551       C  0.60645882  0.95756081  0.40055762     0.03200
C1552       C  0.62379014  0.93049206  0.41493951    -0.13000
C1553       C  0.65443412  0.92059012  0.39167813     0.00700
C1554       C  0.66816273  0.93719049  0.35212874    -0.11500
C1555       C  0.65217352  0.96474427  0.33728957     0.03200
C1556       C  0.62133491  0.97519702  0.36186242    -0.10900
H1557       H  0.61371501  0.91656633  0.44512087     0.08800
H1558       H  0.69211498  0.92931170  0.33433276     0.06300
H1559       H  0.60883847  0.49636971  0.35032950     0.06100
C1560       C  0.85819772  0.52474161  0.04026160     0.03200
C1561       C  0.84486910  0.00743245  0.08032646    -0.13000
C1562       C  0.81419281  0.51733036  0.10565812     0.00700
C1563       C  0.79683753  0.54421867  0.09045854    -0.11500
C1564       C  0.80895259  0.56040329  0.04930793     0.03200
C1565       C  0.83928383  0.55072498  0.02480107    -0.10900
H1566       H  0.85860254  0.98700808  0.09257984     0.08800
H1567       H  0.77339809  0.55202879  0.10962423     0.06300
H1568       H  0.85489356  0.56668335  0.49612561     0.06100
O1569       O  0.74332066  0.93212194  0.13790874    -0.80900
O1570       O  0.77650528  0.54551424  0.26715867    -0.65500
O1571       O  0.74943046  0.96459073  0.22682909    -1.12100
C1572       C  0.64394601  0.51670902  0.18010232     1.06000
O1573       O  0.72643173  0.54795918  0.30799256    -0.78800
O1574       O  0.66979306  0.51116826  0.29982510    -0.66300
Ni1575     Ni  0.77934232  0.93998539  0.18655821     1.34900
C1576       C  0.66878375  0.98220206  0.29672638     0.84800
O1577       O  0.80969060  0.99017031  0.27378110    -0.79300
O1578       O  0.81709500  0.94575948  0.23254608    -0.89600
C1579       C  0.75613544  0.55934057  0.29712838     0.84300
O1580       O  0.79824136  0.97083030  0.14403132    -0.67800
O1581       O  0.65420682  0.53688634  0.21130138    -0.87100
C1582       C  0.79937550  0.49979115  0.14743394     0.85200
C1583       C  0.82722135  0.96572629  0.26425329     1.06700
H1584       H  0.72499947  0.52832823  0.18877444     0.38500
O1585       O  0.72072047  0.51675325  0.21881547    -1.09700
O1586       O  0.68241431  0.96721782  0.26100077    -0.66400
Ni1587     Ni  0.70502074  0.97709620  0.19909993     1.26300
O1588       O  0.78730191  0.51461134  0.18439645    -0.66600
O1589       O  0.66074975  0.99173010  0.17172646    -0.78900
C1590       C  0.71280140  0.92203034  0.14796236     0.84600
O1591       O  0.69303156  0.93618274  0.17830443    -0.66100
Ni1592     Ni  0.69091288  0.54161247  0.25861606     1.27400
Ni1593     Ni  0.76510692  0.50444541  0.24649882     1.26100
H1594       H  0.74514952  0.95298578  0.25674672     0.39100
C1595       C  0.76868324  0.64386573  0.31901686     0.03200
C1596       C  0.77299989  0.64438395  0.37071280    -0.13000
C1597       C  0.77304611  0.61700773  0.39900739     0.00700
C1598       C  0.76820962  0.58915131  0.37303363    -0.11500
C1599       C  0.76637468  0.58824034  0.32117264     0.03200
C1600       C  0.76674140  0.61568344  0.29406986    -0.10900
H1601       H  0.77497048  0.66665954  0.38782152     0.08800
H1602       H  0.76446103  0.56770641  0.39229580     0.04700
H1603       H  0.76182025  0.61522665  0.25440295     0.06100
C1604       C  0.79669494  0.64380979  0.03049900     0.03200
C1605       C  0.79905055  0.61608387  0.05615989    -0.13000
C1606       C  0.79196862  0.58859123  0.03142640     0.00700
C1607       C  0.78652867  0.58995054  0.48037043    -0.11500
C1608       C  0.77815708  0.61721949  0.45471125     0.03200
C1609       C  0.77940219  0.64483935  0.48205231    -0.10900
H1610       H  0.81084129  0.61560783  0.09283964     0.08800
H1611       H  0.78851943  0.56824980  0.46139017     0.06300
H1612       H  0.77416538  0.66671463  0.46494698     0.06100
C1613       C  0.60919699  0.70790212  0.15064514     0.03200
C1614       C  0.59056973  0.68168180  0.16605690    -0.13000
C1615       C  0.56009710  0.67191740  0.14189032     0.00700
C1616       C  0.54755766  0.68817772  0.10112871    -0.11500
C1617       C  0.56457832  0.71517462  0.08577709     0.03200
C1618       C  0.59543106  0.72519447  0.11073190    -0.10900
H1619       H  0.59990537  0.66805679  0.19706705     0.08800
H1620       H  0.52390574  0.68037413  0.08247736     0.06300
H1621       H  0.60885348  0.74577049  0.09847201     0.06100
C1622       C  0.85832960  0.77496042  0.29011799     0.03200
C1623       C  0.87212519  0.75766666  0.32985249    -0.13000
C1624       C  0.90250930  0.76808575  0.35531266     0.00700
C1625       C  0.91905989  0.79545624  0.34052962    -0.11500
C1626       C  0.90637517  0.81170441  0.29979327     0.03200
C1627       C  0.87632511  0.80157260  0.27531896    -0.10900
H1628       H  0.85905985  0.73679877  0.34159738     0.08800
H1629       H  0.94253452  0.80346414  0.35939378     0.06300
H1630       H  0.86697464  0.81512828  0.24423909     0.06100
O1631       O  0.99556082  0.80017978  0.05518088    -0.80900
O1632       O  0.52904786  0.68723574  0.42579584    -0.65500
O1633       O  0.99744004  0.76807254  0.46695134    -1.12100
C1634       C  0.89545912  0.71606364  0.01404631     1.06000
O1635       O  0.97454887  0.68410612  0.38588098    -0.78800
O1636       O  0.91880247  0.72159523  0.39354292    -0.66300
Ni1637     Ni  0.52699075  0.79234111  0.00663068     1.34900
C1638       C  0.91798966  0.75057204  0.39660996     0.84800
O1639       O  0.56143063  0.74273103  0.41905308    -0.79300
O1640       O  0.56886717  0.78717857  0.46022614    -0.89600
C1641       C  0.00471283  0.67344123  0.39613849     0.84300
O1642       O  0.54751697  0.76167575  0.04807775    -0.67800
O1643       O  0.90189865  0.69595483  0.48208635    -0.87100
C1644       C  0.54886850  0.73272981  0.04454613     0.85200
C1645       C  0.57880508  0.76726642  0.42840150     1.06700
H1646       H  0.97659589  0.70439520  0.00465890     0.38500
O1647       O  0.96904829  0.71576280  0.47500339    -1.09700
O1648       O  0.93088482  0.76546549  0.43289588    -0.66400
Ni1649     Ni  0.95321628  0.75545068  0.49481967     1.26300
O1650       O  0.53602195  0.71788320  0.00809019    -0.66600
O1651       O  0.91238060  0.74096089  0.02283482    -0.78900
C1652       C  0.96529099  0.81077573  0.04539828     0.84600
O1653       O  0.94494797  0.79668812  0.01567038    -0.66100
Ni1654     Ni  0.93902355  0.69094485  0.43520683     1.27400
Ni1655     Ni  0.51722687  0.72814932  0.44668780     1.26100
H1656       H  0.99302460  0.77972266  0.43704826     0.39100
C1657       C  0.51930223  0.64442185  0.37175600     0.03200
C1658       C  0.01675041  0.61736946  0.39769221    -0.13000
C1659       C  0.51501901  0.58886262  0.37121128     0.00700
C1660       C  0.51685254  0.58918460  0.31925620    -0.11500
C1661       C  0.52241269  0.61669991  0.29249119     0.03200
C1662       C  0.52339446  0.64430054  0.32009641    -0.10900
H1663       H  0.01181057  0.61733642  0.43736270     0.08800
H1664       H  0.51253999  0.56761856  0.30060647     0.06300
H1665       H  0.52605052  0.66636797  0.30251145     0.06100
C1666       C  0.54533793  0.58860584  0.16159528     0.03200
C1667       C  0.53444191  0.58884392  0.21133549    -0.13000
C1668       C  0.52740174  0.61647100  0.23673574     0.00700
C1669       C  0.53005612  0.64393593  0.20911817    -0.11500
C1670       C  0.54278569  0.64395253  0.16021241     0.03200
C1671       C  0.54916051  0.61620637  0.13586548    -0.10900
H1672       H  0.53509783  0.56713377  0.23046330     0.08800
H1673       H  0.52547332  0.66605144  0.22574643     0.06300
H1674       H  0.56138511  0.61626243  0.09946292     0.06100
C1675       C  0.61078271  0.52414460  0.15319827     0.03200
C1676       C  0.59724497  0.00681522  0.11329637    -0.13000
C1677       C  0.56708263  0.51725237  0.08730608     0.00700
C1678       C  0.55041533  0.54461277  0.10190800    -0.11500
C1679       C  0.56278597  0.56083844  0.14286737     0.03200
C1680       C  0.59264179  0.55069346  0.16781835    -0.10900
H1681       H  0.61044395  0.98598265  0.10169201     0.08800
H1682       H  0.52713138  0.55267522  0.08264177     0.06300
H1683       H  0.60183155  0.56426147  0.19898474     0.06100
C1684       C  0.86112273  0.95875057  0.29030305     0.03200
C1685       C  0.87976260  0.93249710  0.27513841    -0.13000
C1686       C  0.91028767  0.92287903  0.29930363     0.00700
C1687       C  0.92298892  0.93940585  0.33967518    -0.11500
C1688       C  0.90591415  0.96640487  0.35490902     0.03200
C1689       C  0.87498942  0.97628654  0.32992568    -0.10900
H1690       H  0.87032792  0.91866440  0.24443015     0.08800
H1691       H  0.94666499  0.93167313  0.35834332     0.06300
H1692       H  0.86149669  0.49684903  0.34210332     0.06100
O1693       O  0.97851628  0.55023532  0.38616001    -0.80900
O1694       O  0.94128984  0.93744463  0.01626614    -0.65500
O1695       O  0.97295962  0.51823885  0.47487952    -1.12100
C1696       C  0.57326414  0.96548122  0.42741703     1.06000
O1697       O  0.99125879  0.93452783  0.05731209    -0.78800
O1698       O  0.55139939  0.97084007  0.04816684    -0.66300
Ni1699     Ni  0.94301874  0.54323102  0.43547617     1.34900
C1700       C  0.55200060  0.49984279  0.04552505     0.84800
O1701       O  0.90890946  0.99294078  0.02281147    -0.79300
O1702       O  0.90616018  0.53811042  0.48261608    -0.89600
C1703       C  0.96137385  0.92347462  0.04635605     0.84300
O1704       O  0.92254551  0.51280146  0.39350248    -0.67800
O1705       O  0.56318644  0.94574610  0.45946698    -0.87100
C1706       C  0.92137933  0.98382485  0.39653202     0.85200
C1707       C  0.89182617  0.51770914  0.01402343     1.06700
H1708       H  0.99663931  0.95434774  0.43646393     0.38500
O1709       O  0.00121742  0.96591113  0.46637495    -1.09700
O1710       O  0.53916008  0.51484046  0.00928655    -0.66400
Ni1711     Ni  0.51229552  0.50526249  0.44681981     1.26300
O1712       O  0.93415774  0.96881784  0.43289328    -0.66600
O1713       O  0.55635030  0.99036917  0.41851455    -0.78900
C1714       C  0.00872663  0.56084379  0.39639955     0.84600
O1715       O  0.52401649  0.54618239  0.42571335    -0.66100
Ni1716     Ni  0.53122310  0.94028910  0.00619866     1.27400
Ni1717     Ni  0.95708333  0.97857777  0.49476934     1.26100
H1718       H  0.97373986  0.52960929  0.00576322     0.39100
C1719       C  0.92388795  0.83932870  0.28061855     0.03200
C1720       C  0.92025601  0.86706901  0.30602202    -0.13000
C1721       C  0.92733044  0.89465267  0.28158301     0.00700
C1722       C  0.94039854  0.89431343  0.23289745    -0.11500
C1723       C  0.94255318  0.86676021  0.20541033     0.03200
C1724       C  0.93495462  0.83927795  0.23092058    -0.10900
H1725       H  0.90780945  0.86739629  0.34227155     0.08800
H1726       H  0.94561719  0.91632565  0.21629669     0.06300
H1727       H  0.93412823  0.81752635  0.21191017     0.06100
C1728       C  0.95433902  0.83910739  0.07073823     0.03200
C1729       C  0.95329450  0.86689442  0.04458159    -0.13000
C1730       C  0.95079596  0.89469735  0.07048550     0.00700
C1731       C  0.94684557  0.89452732  0.12212881    -0.11500
C1732       C  0.94754243  0.86689968  0.14964916     0.03200
C1733       C  0.95262229  0.83935000  0.12275934    -0.10900
H1734       H  0.95804158  0.86705003  0.00486640     0.08800
H1735       H  0.94440223  0.91660355  0.13973009     0.06300
H1736       H  0.95657128  0.81771279  0.14137420     0.06100
C1737       C  0.60684048  0.77583093  0.90012744     0.03200
C1738       C  0.62443664  0.80270651  0.91496526    -0.13000
C1739       C  0.65491988  0.81279031  0.89141415     0.00700
C1740       C  0.66828459  0.79643119  0.85128811    -0.11500
C1741       C  0.65204218  0.76904126  0.83608458     0.03200
C1742       C  0.62128969  0.75854435  0.86074964    -0.10900
H1743       H  0.61461317  0.81637877  0.94560753     0.08800
H1744       H  0.69215048  0.80434728  0.83330973     0.06300
H1745       H  0.60858468  0.73754062  0.84886449     0.06100
C1746       C  0.85805376  0.70927293  0.53955578     0.03200
C1747       C  0.84512643  0.72638853  0.58010679    -0.13000
C1748       C  0.81458410  0.71646864  0.60573453     0.00700
C1749       C  0.79709035  0.68964656  0.59050992    -0.11500
C1750       C  0.80875221  0.67369107  0.54885076     0.03200
C1751       C  0.83880210  0.68354700  0.52380912    -0.10900
H1752       H  0.85905709  0.74668624  0.59246792     0.08800
H1753       H  0.77382928  0.68174670  0.61000403     0.06300
H1754       H  0.85445803  0.66758803  0.99574183     0.06100
O1755       O  0.72633216  0.68615028  0.80801222    -0.80900
O1756       O  0.69298557  0.79714844  0.67708301    -0.65500
O1757       O  0.72092086  0.71687372  0.71836603    -1.12100
C1758       C  0.82678561  0.76869827  0.76437420     1.06000
O1759       O  0.74341348  0.80123619  0.63714876    -0.78800
O1760       O  0.79875152  0.76301033  0.64412367    -0.66300
Ni1761     Ni  0.69108304  0.69205268  0.75817578     1.34900
C1762       C  0.79982686  0.73404381  0.64755522     0.84800
O1763       O  0.66107767  0.74138678  0.67039670    -0.79300
O1764       O  0.65469596  0.69635727  0.71041102    -0.89600
C1765       C  0.71300852  0.81148952  0.64736158     0.84300
O1766       O  0.66954859  0.72258257  0.79875924    -0.67800
O1767       O  0.81667874  0.78859464  0.73257497    -0.87100
C1768       C  0.66852261  0.75153634  0.79547944     0.85200
C1769       C  0.64444655  0.71633104  0.67890536     1.06700
H1770       H  0.74475883  0.78087690  0.75597647     0.38500
O1771       O  0.74928075  0.76920403  0.72617976    -1.09700
O1772       O  0.78755290  0.71925346  0.68443339    -0.66400
Ni1773     Ni  0.76508026  0.72951657  0.74633228     1.26300
O1774       O  0.68216691  0.76643018  0.75969148    -0.66600
O1775       O  0.80943556  0.74413534  0.77378112    -0.78900
C1776       C  0.75608464  0.67476913  0.79746468     0.84600
O1777       O  0.77656635  0.68856701  0.76758560    -0.66100
Ni1778     Ni  0.77924257  0.79388378  0.68610142     1.27400
Ni1779     Ni  0.70509639  0.75637199  0.69812181     1.26100
H1780       H  0.72540054  0.70520368  0.68851178     0.39100
C1781       C  0.67843075  0.89533188  0.91001461     0.03200
C1782       C  0.67077829  0.86787288  0.88548354    -0.13000
C1783       C  0.67266734  0.84015357  0.91127977     0.00700
C1784       C  0.68303094  0.83993250  0.96123373    -0.11500
C1785       C  0.69107265  0.86658204  0.48730525     0.03200
C1786       C  0.69091963  0.89474629  0.95910433    -0.10900
H1787       H  0.65892146  0.86843524  0.84884953     0.08800
H1788       H  0.68083013  0.81830940  0.98042003     0.06300
H1789       H  0.69643130  0.91660634  0.97610278     0.06100
C1790       C  0.70158989  0.83982506  0.62257920     0.03200
C1791       C  0.70393744  0.86792633  0.64767788    -0.13000
C1792       C  0.70359643  0.89546806  0.62084595     0.00700
C1793       C  0.70100807  0.89471017  0.56901702    -0.11500
C1794       C  0.69624819  0.86684535  0.54295803     0.03200
C1795       C  0.69659822  0.83942699  0.57105635    -0.10900
H1796       H  0.70944334  0.86826386  0.68719605     0.08800
H1797       H  0.70423516  0.91624298  0.54980147     0.06300
H1798       H  0.69424568  0.81719953  0.55387650     0.06100
C1799       C  0.61212439  0.95911544  0.90181609     0.03200
C1800       C  0.63131866  0.93330459  0.91727259    -0.13000
C1801       C  0.66149585  0.92363268  0.89239723     0.00700
C1802       C  0.67330170  0.93980612  0.85102567    -0.11500
C1803       C  0.65578911  0.96667107  0.83596296     0.03200
C1804       C  0.62516867  0.97645942  0.86156320    -0.10900
H1805       H  0.62245271  0.91975685  0.94865349     0.08800
H1806       H  0.69662081  0.93200273  0.83156570     0.06300
H1807       H  0.61124661  0.49679607  0.84935648     0.06100
C1808       C  0.86273362  0.52602691  0.54125251     0.03200
C1809       C  0.84824004  0.00854017  0.58040815    -0.13000
C1810       C  0.81745485  0.51891351  0.60517260     0.00700
C1811       C  0.80110828  0.54629273  0.59009481    -0.11500
C1812       C  0.81449799  0.56281006  0.55014727     0.03200
C1813       C  0.84505438  0.55288196  0.52660680    -0.10900
H1814       H  0.86101984  0.98755009  0.59219007     0.08800
H1815       H  0.77722350  0.55412324  0.60812543     0.06300
H1816       H  0.84839692  0.56431941  0.99361517     0.06100
O1817       O  0.74389443  0.93538053  0.63452005    -0.80900
O1818       O  0.77698264  0.54747158  0.76438160    -0.65500
O1819       O  0.74910059  0.96694825  0.72369111    -1.12100
C1820       C  0.64320000  0.51814026  0.67650434     1.06000
O1821       O  0.72628744  0.55228922  0.80355116    -0.78800
O1822       O  0.67175703  0.51321078  0.79748527    -0.66300
Ni1823     Ni  0.77910609  0.94204144  0.68420317     1.34900
C1824       C  0.67042620  0.98425010  0.79403803     0.84800
O1825       O  0.80878267  0.99175795  0.77205667    -0.79300
O1826       O  0.81562865  0.94695234  0.73167096    -0.89600
C1827       C  0.75698223  0.56206651  0.79383626     0.84300
O1828       O  0.80001126  0.97249326  0.64281228    -0.67800
O1829       O  0.65311963  0.53797582  0.70850329    -0.87100
C1830       C  0.80122908  0.50144420  0.64606143     0.85200
C1831       C  0.82567262  0.96685871  0.76341340     1.06700
H1832       H  0.72541028  0.53081577  0.68515755     0.38500
O1833       O  0.72079262  0.51925023  0.71503147    -1.09700
O1834       O  0.68229223  0.96941610  0.75695499    -0.66400
Ni1835     Ni  0.70504824  0.97940834  0.69517766     1.26300
O1836       O  0.78803103  0.51639246  0.68213139    -0.66600
O1837       O  0.66080942  0.99376413  0.66695877    -0.78900
C1838       C  0.71398162  0.92430546  0.64496143     0.84600
O1839       O  0.69353432  0.93835988  0.67453570    -0.66100
Ni1840     Ni  0.69060326  0.54399701  0.75470541     1.27400
Ni1841     Ni  0.76486848  0.50657957  0.74366456     1.26100
H1842       H  0.74452464  0.95536928  0.75363574     0.39100
C1843       C  0.76616892  0.64582048  0.82151411     0.03200
C1844       C  0.76787549  0.64482247  0.87337394    -0.13000
C1845       C  0.77294750  0.61694839  0.89922877     0.00700
C1846       C  0.77305402  0.58960951  0.87082565    -0.11500
C1847       C  0.76870446  0.59019116  0.81912086     0.03200
C1848       C  0.76666448  0.61841767  0.79430557    -0.10900
H1849       H  0.76393011  0.66621495  0.89271156     0.08800
H1850       H  0.77513113  0.56732183  0.88787378     0.04700
H1851       H  0.76179238  0.61893103  0.75462978     0.06100
C1852       C  0.79175661  0.64543272  0.53117948     0.03200
C1853       C  0.79896537  0.61796824  0.55596745    -0.13000
C1854       C  0.79677436  0.59019736  0.53035509     0.00700
C1855       C  0.77970192  0.58908875  0.98223672    -0.11500
C1856       C  0.77817447  0.61670712  0.95491293     0.03200
C1857       C  0.78637340  0.64400965  0.98056112    -0.10900
H1858       H  0.81074518  0.61851723  0.59264809     0.08800
H1859       H  0.77469099  0.56718199  0.96509701     0.06300
H1860       H  0.78820629  0.66572358  0.96159237     0.06100
C1861       C  0.61140986  0.70858244  0.65203808     0.03200
C1862       C  0.59323084  0.68217137  0.66724132    -0.13000
C1863       C  0.56326041  0.67194287  0.64266253     0.00700
C1864       C  0.55085843  0.68790684  0.60143836    -0.11500
C1865       C  0.56757178  0.71513985  0.58639763     0.03200
C1866       C  0.59786683  0.72563016  0.61191819    -0.10900
H1867       H  0.60245151  0.66880587  0.69861540     0.08800
H1868       H  0.52747809  0.67982534  0.58242547     0.06300
H1869       H  0.61105748  0.74638615  0.59993250     0.06100
C1870       C  0.86051087  0.77584025  0.79058670     0.03200
C1871       C  0.87425160  0.75839168  0.83033145    -0.13000
C1872       C  0.90514755  0.76827369  0.85528966     0.00700
C1873       C  0.92227271  0.79523509  0.84003791    -0.11500
C1874       C  0.90978608  0.81158549  0.79936510     0.03200
C1875       C  0.87923520  0.80199858  0.77523642    -0.10900
H1876       H  0.86074315  0.73784233  0.84252044     0.08800
H1877       H  0.94594449  0.80295967  0.85872499     0.06300
H1878       H  0.86991466  0.81571234  0.74431679     0.06100
O1879       O  0.99147012  0.79982908  0.55596022    -0.80900
O1880       O  0.52449793  0.68694350  0.92554143    -0.65500
O1881       O  0.00070234  0.76817731  0.96613575    -1.12100
C1882       C  0.89170041  0.71616528  0.51327824     1.06000
O1883       O  0.97798863  0.68418167  0.88583690    -0.78800
O1884       O  0.92190024  0.72177105  0.89331954    -0.66300
Ni1885     Ni  0.53161340  0.79245171  0.50677717     1.34900
C1886       C  0.92069913  0.75073721  0.89662809     0.84800
O1887       O  0.55685232  0.74284679  0.91816280    -0.79300
O1888       O  0.56371817  0.78739226  0.95933289    -0.89600
C1889       C  0.00796115  0.67321537  0.89655991     0.84300
O1890       O  0.55118663  0.76160787  0.54854791    -0.67800
O1891       O  0.90553857  0.69625266  0.98212922    -0.87100
C1892       C  0.55226133  0.73266717  0.54505951     0.85200
C1893       C  0.57374564  0.76775085  0.92711979     1.06700
H1894       H  0.97356895  0.70417486  0.50493279     0.38500
O1895       O  0.97218818  0.71599565  0.97470192    -1.09700
O1896       O  0.93356544  0.76564700  0.93299312    -0.66400
Ni1897     Ni  0.95653371  0.75568474  0.99465148     1.26300
O1898       O  0.53978994  0.71789026  0.50836940    -0.66600
O1899       O  0.90889803  0.74086855  0.52211319    -0.78900
C1900       C  0.96137366  0.81058251  0.54531224     0.84600
O1901       O  0.94126564  0.79638878  0.51549267    -0.66100
Ni1902     Ni  0.94234599  0.69116393  0.93500152     1.27400
Ni1903     Ni  0.51281962  0.72792739  0.94658811     1.26100
H1904       H  0.99615986  0.77966296  0.93610850     0.39100
C1905       C  0.51517867  0.64412891  0.87134162     0.03200
C1906       C  0.01629951  0.61659776  0.89811227    -0.13000
C1907       C  0.51934628  0.58856430  0.87210188     0.00700
C1908       C  0.52367405  0.58861751  0.82046777    -0.11500
C1909       C  0.52279881  0.61619668  0.79278326     0.03200
C1910       C  0.51703048  0.64372168  0.81939258    -0.10900
H1911       H  0.01132586  0.61665497  0.93777327     0.08800
H1912       H  0.52644521  0.56653392  0.80295806     0.06300
H1913       H  0.51267455  0.66523379  0.80058291     0.06100
C1914       C  0.54296631  0.58898743  0.66039460     0.03200
C1915       C  0.53055345  0.58898465  0.70945407    -0.13000
C1916       C  0.52804634  0.61643495  0.73709148     0.00700
C1917       C  0.53532412  0.64404897  0.71174698    -0.11500
C1918       C  0.54585177  0.64427730  0.66182560     0.03200
C1919       C  0.54923647  0.61670245  0.63596879    -0.10900
H1920       H  0.52604809  0.56686765  0.72612700     0.08800
H1921       H  0.53632404  0.66571467  0.73099378     0.06300
H1922       H  0.56115953  0.61661723  0.59936370     0.06100
C1923       C  0.60941352  0.52523631  0.65029806     0.03200
C1924       C  0.59563018  0.00798935  0.61030856    -0.13000
C1925       C  0.56470037  0.51804098  0.58549613     0.00700
C1926       C  0.54774074  0.54502740  0.60094102    -0.11500
C1927       C  0.56021504  0.56109157  0.64189497     0.03200
C1928       C  0.59065202  0.55128582  0.66601038    -0.10900
H1929       H  0.60906100  0.98744655  0.59791956     0.08800
H1930       H  0.52410753  0.55291723  0.58233283     0.06300
H1931       H  0.59989454  0.56481079  0.69718960     0.06100
C1932       C  0.85876128  0.95915753  0.79035938     0.03200
C1933       C  0.87688150  0.93268750  0.77523152    -0.13000
C1934       C  0.90691238  0.92245899  0.79966145     0.00700
C1935       C  0.91940953  0.93844809  0.84080700    -0.11500
C1936       C  0.90278426  0.96573646  0.85587262     0.03200
C1937       C  0.87243848  0.97625235  0.83039404    -0.10900
H1938       H  0.86759464  0.91927409  0.74395335     0.08800
H1939       H  0.94281483  0.93034200  0.85973084     0.06300
H1940       H  0.85931129  0.49704149  0.84234489     0.06100
O1941       O  0.97473079  0.54965077  0.88659605    -0.80900
O1942       O  0.94531419  0.93758934  0.51554260    -0.65500
O1943       O  0.96921279  0.51801795  0.97581732    -1.12100
C1944       C  0.57846439  0.96586280  0.92819233     1.06000
O1945       O  0.99575985  0.93396054  0.55544028    -0.78800
O1946       O  0.54741164  0.97156112  0.54804901    -0.66300
Ni1947     Ni  0.93922835  0.54283024  0.93595996     1.34900
C1948       C  0.54871117  0.50049705  0.54449451     0.84800
O1949       O  0.91295124  0.99334750  0.52307629    -0.79300
O1950       O  0.90211424  0.53787616  0.98283623    -0.89600
C1951       C  0.96554310  0.92336609  0.54524480     0.84300
O1952       O  0.91901641  0.51215568  0.89432486    -0.67800
O1953       O  0.56826178  0.94552273  0.95916809    -0.87100
C1954       C  0.91821442  0.98317818  0.89731633     0.85200
C1955       C  0.89601533  0.51824921  0.51440430     1.06700
H1956       H  0.99328210  0.95390773  0.93829263     0.38500
O1957       O  0.99759851  0.96568927  0.96806511    -1.09700
O1958       O  0.53551697  0.51533906  0.50827657    -0.66400
Ni1959     Ni  0.51694635  0.50496558  0.94715267     1.26300
O1960       O  0.93108181  0.96826359  0.93360536    -0.66600
O1961       O  0.56128123  0.99059749  0.91971542    -0.78900
C1962       C  0.00489824  0.56033313  0.89675173     0.84600
O1963       O  0.52880871  0.54593345  0.92664410    -0.66100
Ni1964     Ni  0.52654260  0.94094273  0.50691717     1.27400
Ni1965     Ni  0.95328181  0.97834689  0.99564217     1.26100
H1966       H  0.97753220  0.52978077  0.50486055     0.39100
C1967       C  0.92716052  0.83952234  0.78116989     0.03200
C1968       C  0.92106059  0.86717409  0.80590397    -0.13000
C1969       C  0.92434771  0.89484085  0.78023622     0.00700
C1970       C  0.93465212  0.89474245  0.73019066    -0.11500
C1971       C  0.94174055  0.86719064  0.70454001     0.03200
C1972       C  0.93942656  0.83967684  0.73204997    -0.10900
H1973       H  0.90927820  0.86697707  0.84259605     0.08800
H1974       H  0.93362079  0.91646670  0.71113019     0.06300
H1975       H  0.94389539  0.81759948  0.71523943     0.06100
C1976       C  0.95056289  0.83933498  0.56948254     0.03200
C1977       C  0.95348213  0.86720783  0.54381525    -0.13000
C1978       C  0.95440453  0.89493985  0.57015680     0.00700
C1979       C  0.95218506  0.89459596  0.62209142    -0.11500
C1980       C  0.94670139  0.86703557  0.64875626     0.03200
C1981       C  0.94603601  0.83943485  0.62107710    -0.10900
H1982       H  0.95861294  0.86713615  0.50419593     0.08800
H1983       H  0.95615133  0.91618255  0.64083603     0.06300
H1984       H  0.94334473  0.81734437  0.63856518     0.06100
loop_ 
_geom_bond_atom_site_label_1 
_geom_bond_atom_site_label_2 
_geom_bond_distance 
_geom_bond_site_symmetry_2 
_ccdc_geom_bond_type 
C1            C2   1.405       .  A
C1            C6   1.411       .  A
C1          C157   1.493       .  S
C2            C3   1.392       .  A
C2            H7   1.084       .  S
C3            C4   1.390       .  A
C3           C47   1.470       .  S
C4            C5   1.405       .  A
C4            H8   1.084       .  S
C5            C6   1.419       .  A
C5           C32   1.472       .  S
C6            H9   1.083       .  S
C10          C11   1.411       .  A
C10          C15   1.404       .  A
C10         C146   1.493       .  S
C11          C12   1.418       .  A
C11          H16   1.083       .  S
C12          C13   1.406       .  A
C12          C26   1.472       .  S
C13          C14   1.392       .  A
C13          H17   1.084       .  S
C14          C15   1.393       .  A
C14         C116   1.469       .  S
C15         H266   1.084   1_554  S
H18         C263   1.084       .  S
O19         Ni25   1.914       .  S
O19          C40   1.267       .  A
O20         Ni43   1.922       .  S
O20          C29   1.269       .  A
O21         Ni25   1.899       .  S
O21         Ni43   1.905       .  S
O21         Ni37   1.921       .  S
O21          H44   0.965       .  S
C22         C134   1.498       .  S
C22          O39   1.283       .  A
C22          O31   1.277       .  A
O23         Ni42   1.922       .  S
O23          C29   1.269       .  A
O24         Ni42   1.906       .  S
O24          C26   1.266       .  A
Ni25         O28   1.899       .  S
Ni25         O30   1.907       .  S
C26          O36   1.272       .  A
O27         Ni43   1.945       .  S
O27          C33   1.282       .  A
O28          C33   1.276       .  A
C29          C54   1.470       .  S
O30          C32   1.266       .  A
O31         Ni42   1.908       .  S
C32          O38   1.271       .  A
C33         C125   1.489       .  S
H34          O35   0.967       .  S
O35         Ni43   1.924       .  S
O35         Ni37   1.911       .  S
O35         Ni42   1.901       .  S
O36         Ni37   1.925       .  S
Ni37         O41   1.925       .  S
Ni37         O39   1.951       .  S
O38         Ni43   1.921       .  S
C40         C107   1.469       .  S
C40          O41   1.271       .  A
C45          C46   1.397       .  A
C45          C50   1.404       .  A
C45          C65   1.469       .  S
C46          C47   1.395       .  A
C46          H51   1.085       .  S
C47          C48   1.401       .  A
C48         C297   1.411       .  A
C48          H52   1.078       .  S
C49         C296   1.412       .  A
C49         C298   1.410       .  A
C49          C58   1.512   1_556  S
C50         C297   1.412       .  A
C50          H53   1.077       .  S
C54          C55   1.402       .  A
C54          C59   1.402       .  A
C55          C56   1.401       .  A
C55          H60   1.084       .  S
C56          C57   1.399       .  A
C56         C102   1.470       .  S
C57          C58   1.414       .  A
C57          H61   1.078       .  S
C58          C59   1.415       .  A
C59          H62   1.077       .  S
C63          C64   1.405       .  A
C63          C68   1.410       .  A
C63         C208   1.493       .  S
C64          C65   1.394       .  A
C64          H69   1.084       .  S
C65          C66   1.392       .  A
C66          C67   1.405       .  A
C66          H70   1.084       .  S
C67          C68   1.418       .  A
C67          C88   1.471       .  S
C68         H567   1.083       .  S
H71         C564   1.083       .  S
C72          C77   1.406       .  A
C72         C569   1.410       .  A
C72         C219   1.492       .  S
C73         C568   1.410       .  A
C73         C570   1.419       .  A
C73          H78   1.083       .  S
C74          C75   1.404       .  A
C74         C569   1.419       .  A
C74          C94   1.470       .  S
C75          C76   1.390       .  A
C75          H79   1.084       .  S
C76          C77   1.391       .  A
C76         C118   1.469       .  S
C77         H328   1.084   1_554  S
H80         C325   1.084       .  S
O81         Ni87   1.915       .  S
O81         C102   1.267       .  A
O82        Ni105   1.923       .  S
O82          C91   1.269       .  A
O83         Ni87   1.899       .  S
O83         Ni99   1.921       .  S
O83        Ni601   1.905       .  S
O83         H106   0.965       .  S
C84         C187   1.496       .  S
C84          O93   1.278       .  A
C84         O597   1.283   1_545  A
O85        Ni104   1.922       .  S
O85          C91   1.268       .  A
O86        Ni104   1.906       .  S
O86         C584   1.266   1_545  A
Ni87         O90   1.903       .  S
Ni87         O92   1.904       .  S
C88          O98   1.272       .  A
C88         O582   1.266       .  A
O89        Ni601   1.943       .  S
O89          C95   1.282       .  A
O90          C95   1.277       .  A
C91         C111   1.470       .  S
O92         C590   1.265       .  A
O93        Ni104   1.908       .  S
C94         O100   1.271       .  A
C94         O588   1.265   1_545  A
C95         C196   1.489       .  S
H96          O97   0.967       .  S
O97        Ni105   1.923       .  S
O97        Ni104   1.901       .  S
O97        Ni595   1.910   1_545  S
O98         Ni99   1.924       .  S
Ni99        O103   1.925       .  S
Ni99        O101   1.949       .  S
Ni99        O593   1.910       .  S
O100       Ni105   1.922       .  S
O101        C580   1.283       .  A
C102        O103   1.271       .  A
Ni105       O585   1.943   1_545  S
Ni105       O579   1.905   1_545  S
C107        C108   1.399       .  A
C107        C112   1.402       .  A
C108        C109   1.413       .  A
C108        H113   1.079       .  S
C109        C110   1.415       .  A
C109        C120   1.511       .  S
C110        C111   1.401       .  A
C110        H114   1.077       .  S
C111        C112   1.402       .  A
C112        H115   1.084       .  S
C116        C117   1.397       .  A
C116        C369   1.404   1_554  A
C117        C118   1.395       .  A
C117        H122   1.084       .  S
C118        C367   1.400   1_554  A
C119        C120   1.412       .  A
C119        C366   1.404       .  A
C119        H123   1.078       .  S
C120        C121   1.410       .  A
C121        C364   1.400       .  A
C121        H124   1.078       .  S
C125        C126   1.403       .  A
C125        C130   1.409       .  A
C126        C127   1.391       .  A
C126        H131   1.084       .  S
C127        C128   1.390       .  A
C127        C182   1.468       .  S
C128        C129   1.405       .  A
C128        H132   1.084       .  S
C129        C130   1.417       .  A
C129        C156   1.470       .  S
C130        H133   1.083       .  S
C134        C135   1.413       .  A
C134        C139   1.407       .  A
C135        C136   1.421       .  A
C135        H140   1.083       .  S
C136        C137   1.403       .  A
C136        C150   1.473       .  S
C137        C138   1.388       .  A
C137        H141   1.084       .  S
C138        C139   1.394       .  A
C138        C231   1.468       .  S
C139        H142   1.084       .  S
O143      Ni1141   1.919       .  S
O143        C164   1.268       .  A
O144       Ni167   1.922       .  S
O144       C1145   1.270       .  A
O145       Ni161   1.923       .  S
O145      Ni1389   1.902       .  S
O145      Ni1159   1.908       .  S
O145        H168   0.966       .  S
C146        O163   1.281       .  A
C146        O403   1.277   1_554  A
O147       Ni166   1.918       .  S
O147        C153   1.268       .  A
O148       Ni166   1.907       .  S
O148        C150   1.266       .  A
Ni149       O154   1.905       .  S
Ni149      O1135   1.918   1_455  S
Ni149       O400   1.906   1_554  S
Ni149      O1385   1.901   1_554  S
C150        O160   1.273       .  A
O151       Ni167   1.949       .  S
O151        C157   1.283       .  A
O152       Ni397   1.902       .  S
O152        C157   1.277       .  A
C153       C1161   1.469       .  S
C153       O1136   1.269       .  A
O154        C156   1.265       .  A
O155       Ni166   1.901       .  S
O155        C394   1.277       .  A
C156        O162   1.271       .  A
H158        O407   0.966   1_554  S
O159       Ni161   1.907       .  S
O159       Ni166   1.898       .  S
O159      Ni1159   1.921       .  S
O159        H406   0.966       .  S
O160       Ni161   1.925       .  S
Ni161       O413   1.925       .  S
Ni161       O411   1.950       .  S
O162       Ni415   1.920   1_554  S
O163       Ni409   1.944   1_554  S
C164        C240   1.470       .  S
C164        O165   1.269       .  A
O165       Ni409   1.923   1_554  S
Ni167       O410   1.925       .  S
Ni167      O1137   1.906   1_455  S
Ni167      O1151   1.924   1_455  S
C169        C174   1.399       .  A
C169       C1162   1.400       .  A
C169       C1145   1.468       .  S
C170       C1161   1.402       .  A
C170       C1163   1.401       .  A
C170        H175   1.084       .  S
C171        C172   1.400       .  A
C171       C1162   1.401       .  A
C171       C1218   1.469       .  S
C172        C173   1.415       .  A
C172        H176   1.076       .  S
C173        C174   1.414       .  A
C173        C180   1.513       .  S
C174        H177   1.077       .  S
C178        C179   1.401       .  A
C178        C183   1.395       .  A
C178        C191   1.468       .  S
C179        C180   1.412       .  A
C179        H184   1.076       .  S
C180        C181   1.411       .  A
C181        C182   1.402       .  A
C181        H185   1.077       .  S
C182        C183   1.394       .  A
C183        H186   1.085       .  S
C187        C192   1.406       .  A
C187        C684   1.412       .  A
C188        C683   1.412       .  A
C188        C685   1.420       .  A
C188        H193   1.083       .  S
C189        C190   1.404       .  A
C189        C684   1.420       .  A
C189        C212   1.473       .  S
C190        C191   1.389       .  A
C190        H194   1.084       .  S
C191        C192   1.394       .  A
C192        H195   1.084       .  S
C196        C197   1.403       .  A
C196        C201   1.410       .  A
C197        C198   1.391       .  A
C197        H202   1.084       .  S
C198        C199   1.392       .  A
C198        C233   1.470       .  S
C199        C200   1.406       .  A
C199        H203   1.084       .  S
C200        C201   1.417       .  A
C200        C218   1.472       .  S
C201        H700   1.083       .  S
H204        C697   1.083       .  S
O205       Ni211   1.918       .  S
O205        C226   1.268       .  A
O206       Ni477   1.925   1_554  S
O206        C215   1.271       .  A
O207       Ni211   1.903       .  S
O207       Ni725   1.910   1_545  S
O207      Ni1215   1.925       .  S
O207        H478   0.967       .  S
C208        O225   1.283       .  A
C208        O217   1.277       .  A
O209      Ni1220   1.919       .  S
O209        C215   1.268       .  A
O210       Ni228   1.906       .  S
O210        C708   1.266       .  A
Ni211       O214   1.905       .  S
Ni211       O216   1.906       .  S
C212        O222   1.273       .  A
C212        O706   1.266   1_545  A
O213       Ni477   1.951   1_554  S
O213        C715   1.284       .  A
O214        C467   1.276       .  A
C215        C242   1.471       .  S
O216        C714   1.266   1_545  A
O217       Ni476   1.905       .  S
C218        O224   1.271       .  A
C218        O712   1.266       .  A
C219        O709   1.284   1_545  A
C219        O462   1.276   1_554  A
H220        O221   0.966       .  S
O221       Ni229   1.921       .  S
O221      Ni1711   1.906       .  S
O221      Ni1468   1.898       .  S
O222       Ni471   1.925   1_554  S
Ni223       O227   1.923       .  S
Ni223       O470   1.921       .  S
Ni223       O721   1.948   1_545  S
Ni223      O1199   1.924   1_455  S
Ni223      O1709   1.908   1_545  S
O224       Ni229   1.922       .  S
O225       Ni719   1.948       .  S
C226       C1163   1.471       .  S
C226       O1219   1.270       .  A
O227       C1218   1.269       .  A
Ni228      O1201   1.918   1_455  S
Ni228       O465   1.905   1_554  S
Ni228      O1461   1.899   1_454  S
Ni229       O454   1.923       .  S
Ni229       O461   1.945       .  S
Ni229       O703   1.910       .  S
H230        O455   0.967   1_554  S
C231        C232   1.396       .  A
C231        C236   1.402       .  A
C232        C233   1.395       .  A
C232        H237   1.085       .  S
C233        C234   1.403       .  A
C234        C235   1.411       .  A
C234        H238   1.077       .  S
C235        C236   1.412       .  A
C235        C244   1.514       .  S
C236        H239   1.076       .  S
C240        C241   1.401       .  A
C240        C245   1.399       .  A
C241        C242   1.401       .  A
C241        H246   1.084       .  S
C242        C243   1.401       .  A
C243        C244   1.415       .  A
C243        H247   1.078       .  S
C244        C245   1.415       .  A
C245        H248   1.076       .  S
C249        C250   1.405       .  A
C249        C254   1.411       .  A
C249        C405   1.493       .  S
C250        C251   1.393       .  A
C250        H255   1.084       .  S
C251        C252   1.391       .  A
C251        C295   1.469       .  S
C252        C253   1.406       .  A
C252        H256   1.084       .  S
C253        C254   1.418       .  A
C253        C280   1.472       .  S
C254        H257   1.083       .  S
C258        C259   1.412       .  A
C258        C263   1.406       .  A
C258        C394   1.494       .  S
C259        C260   1.420       .  A
C259        H264   1.083       .  S
C260        C261   1.405       .  A
C260        C274   1.473       .  S
C261        C262   1.390       .  A
C261        H265   1.084       .  S
C262        C263   1.391       .  A
C262        C364   1.470       .  S
O267       Ni273   1.922       .  S
O267        C288   1.269       .  A
O268       Ni291   1.924       .  S
O268        C277   1.270       .  A
O269       Ni273   1.901       .  S
O269       Ni291   1.910       .  S
O269       Ni285   1.924       .  S
O269        H292   0.966       .  S
C270        C382   1.489       .  S
C270        O287   1.282       .  A
C270        O279   1.276       .  A
O271       Ni290   1.913       .  S
O271        C277   1.267       .  A
O272       Ni290   1.907       .  S
O272        C274   1.266       .  A
Ni273       O276   1.908       .  S
Ni273       O278   1.906       .  S
C274        O284   1.272       .  A
O275       Ni291   1.948       .  S
O275        C281   1.282       .  A
O276        C281   1.278       .  A
C277        C302   1.468       .  S
O278        C280   1.266       .  A
O279       Ni290   1.899       .  S
C280        O286   1.272       .  A
C281        C373   1.496       .  S
H282        O283   0.966       .  S
O283       Ni291   1.921       .  S
O283       Ni285   1.903       .  S
O283       Ni290   1.899       .  S
O284       Ni285   1.923       .  S
Ni285       O289   1.921       .  S
Ni285       O287   1.945       .  S
O286       Ni291   1.924       .  S
C288        C355   1.469       .  S
C288        O289   1.269       .  A
C293        C294   1.395       .  A
C293        C298   1.400       .  A
C293        C313   1.469       .  S
C294        C295   1.397       .  A
C294        H299   1.085       .  S
C295        C296   1.404       .  A
C296        H300   1.077       .  S
C297        C306   1.512       .  S
C298        H301   1.077       .  S
C302        C303   1.401       .  A
C302        C307   1.398       .  A
C303        C304   1.402       .  A
C303        H308   1.084       .  S
C304        C305   1.402       .  A
C304        C350   1.470       .  S
C305        C306   1.415       .  A
C305        H309   1.077       .  S
C306        C307   1.413       .  A
C307        H310   1.078       .  S
C311        C312   1.405       .  A
C311        C316   1.412       .  A
C311        C456   1.494       .  S
C312        C313   1.392       .  A
C312        H317   1.084       .  S
C313        C314   1.390       .  A
C314        C315   1.405       .  A
C314        H318   1.084       .  S
C315        C316   1.420       .  A
C315        C336   1.474       .  S
C316        H815   1.083       .  S
H319        C812   1.083       .  S
C320        C817   1.409       .  A
C320        C325   1.405       .  A
C320        C467   1.492       .  S
C321        C816   1.409       .  A
C321        C818   1.417       .  A
C321        H326   1.083       .  S
C322        C817   1.417       .  A
C322        C323   1.407       .  A
C322        C342   1.472   1_545  S
C323        C324   1.393       .  A
C323        H327   1.084       .  S
C324        C325   1.394       .  A
C324        C366   1.471       .  S
O329       Ni335   1.922       .  S
O329        C350   1.269       .  A
O330       Ni353   1.923       .  S
O330        C339   1.270       .  A
O331       Ni335   1.902       .  S
O331       Ni849   1.911       .  S
O331       Ni347   1.924       .  S
O331        H354   0.967       .  S
C332        C435   1.488       .  S
C332        O845   1.282   1_545  A
C332        O341   1.276       .  A
O333       Ni352   1.913       .  S
O333        C339   1.267       .  A
O334       Ni352   1.907       .  S
O334        C832   1.266   1_545  A
Ni335       O338   1.909       .  S
Ni335       O340   1.907       .  S
C336        O830   1.266       .  A
C336        O346   1.272       .  A
O337       Ni849   1.950       .  S
O337        C343   1.283       .  A
O338        C343   1.277       .  A
C339        C359   1.468       .  S
O340        C838   1.266       .  A
O341       Ni352   1.899       .  S
C342        O836   1.266       .  A
C342        O348   1.271   1_565  A
C343        C444   1.498       .  S
H344        O345   0.966       .  S
O345       Ni353   1.920       .  S
O345       Ni843   1.903   1_545  S
O345       Ni352   1.898       .  S
O346       Ni347   1.924       .  S
Ni347       O351   1.923       .  S
Ni347       O349   1.944       .  S
Ni347       O841   1.903       .  S
O348       Ni353   1.923       .  S
O349        C828   1.282       .  A
C350        O351   1.269       .  A
Ni353       O833   1.950   1_545  S
Ni353       O827   1.911   1_545  S
C355        C356   1.401       .  A
C355        C360   1.402       .  A
C356        C357   1.415       .  A
C356        H361   1.077       .  S
C357        C358   1.412       .  A
C357        C368   1.510       .  S
C358        C359   1.398       .  A
C358        H362   1.079       .  S
C359        C360   1.401       .  A
C360        H363   1.084       .  S
C364        C365   1.396       .  A
C365        C366   1.398       .  A
C365        H370   1.084       .  S
C367        C368   1.410       .  A
C367        H371   1.078       .  S
C368        C369   1.412       .  A
C369        H372   1.078       .  S
C373        C374   1.406       .  A
C373        C378   1.413       .  A
C374        C375   1.394       .  A
C374        H379   1.084       .  S
C375        C376   1.391       .  A
C375        C430   1.470       .  S
C376        C377   1.405       .  A
C376        H380   1.084       .  S
C377        C378   1.420       .  A
C377        C404   1.475       .  S
C378        H381   1.083       .  S
C382        C383   1.409       .  A
C382        C387   1.404       .  A
C383        C384   1.417       .  A
C383        H388   1.083       .  S
C384        C385   1.405       .  A
C384        C398   1.470       .  S
C385        C386   1.391       .  A
C385        H389   1.084       .  S
C386        C387   1.391       .  A
C386        C479   1.468       .  S
C387        H390   1.084       .  S
O391      Ni1389   1.917       .  S
O391        C412   1.267       .  A
O392       Ni415   1.923       .  S
O392       C1393   1.269       .  A
O393      Ni1141   1.898   1_556  S
O393      Ni1407   1.907       .  S
O393       Ni409   1.920       .  S
O393        H416   0.966       .  S
C394        O411   1.283       .  A
O395       Ni414   1.918       .  S
O395        C401   1.267       .  A
O396       Ni414   1.904       .  S
O396        C398   1.265       .  A
Ni397      O1383   1.919   1_455  S
Ni397       O402   1.909       .  S
Ni397      O1137   1.898   1_455  S
C398        O408   1.271       .  A
O399       Ni415   1.945       .  S
O399        C405   1.282       .  A
O400        C405   1.277       .  A
C401       C1409   1.470       .  S
C401       O1384   1.271       .  A
O402        C404   1.267       .  A
O403       Ni414   1.906       .  S
C404        O410   1.273       .  A
O407      Ni1407   1.925       .  S
O407       Ni409   1.910       .  S
O407       Ni414   1.903       .  S
O408       Ni409   1.922       .  S
C412        C488   1.470       .  S
C412        O413   1.271       .  A
Ni415      O1385   1.909       .  S
Ni415      O1399   1.921   1_455  S
C417       C1410   1.402       .  A
C417        C422   1.399       .  A
C417       C1393   1.470       .  S
C418       C1409   1.401       .  A
C418       C1411   1.402       .  A
C418        H423   1.084       .  S
C419       C1410   1.402       .  A
C419        C420   1.401       .  A
C419       C1466   1.471       .  S
C420        C421   1.415       .  A
C420        H424   1.078       .  S
C421        C422   1.415       .  A
C421        C428   1.515       .  S
C422        H425   1.076       .  S
C426        C427   1.403       .  A
C426        C431   1.395       .  A
C426        C439   1.470       .  S
C427        C428   1.411       .  A
C427        H432   1.077       .  S
C428        C429   1.413       .  A
C429        C430   1.403       .  A
C429        H433   1.076       .  S
C430        C431   1.396       .  A
C431        H434   1.085       .  S
C435        C932   1.409       .  A
C435        C440   1.403       .  A
C436        C931   1.409       .  A
C436        C933   1.417       .  A
C436        H441   1.083       .  S
C437        C932   1.417       .  A
C437        C438   1.406       .  A
C437        C460   1.471       .  S
C438        C439   1.392       .  A
C438        H442   1.084       .  S
C439        C440   1.390       .  A
C440        H443   1.084       .  S
C444        C445   1.407       .  A
C444        C449   1.413       .  A
C445        C446   1.395       .  A
C445        H450   1.084       .  S
C446        C447   1.390       .  A
C446        C481   1.470       .  S
C447        C448   1.404       .  A
C447        H451   1.084       .  S
C448        C449   1.420       .  A
C448        C466   1.474       .  S
C449        H948   1.083       .  S
H452        C945   1.083       .  S
O453       Ni459   1.917       .  S
O453        C474   1.268       .  A
O454        C463   1.269       .  A
O455       Ni459   1.897       .  S
O455       Ni973   1.905   1_545  S
O455      Ni1463   1.919       .  S
C456        O473   1.283       .  A
C456        O465   1.278       .  A
O457      Ni1468   1.917       .  S
O457        C463   1.268       .  A
O458       Ni476   1.907       .  S
O458        C956   1.266       .  A
Ni459       O462   1.899       .  S
Ni459       O464   1.908       .  S
C460        O954   1.266   1_545  A
C460        O470   1.271       .  A
O461        C963   1.281       .  A
C463        C490   1.469       .  S
O464        C962   1.266   1_545  A
C466        O960   1.266       .  A
C466        O472   1.273       .  A
C467        O957   1.281   1_545  A
H468        O469   0.966       .  S
O469       Ni477   1.925       .  S
O469      Ni1959   1.909       .  S
O469      Ni1220   1.902   1_556  S
Ni471       O475   1.925       .  S
Ni471       O969   1.949   1_545  S
Ni471      O1447   1.924   1_455  S
Ni471      O1957   1.906   1_445  S
O472       Ni477   1.927       .  S
O473       Ni967   1.949       .  S
C474       C1411   1.469       .  S
C474       O1467   1.269       .  A
O475       C1466   1.271       .  A
Ni476      O1449   1.919   1_455  S
Ni476      O1213   1.902       .  S
Ni477       O951   1.905       .  S
C479        C480   1.395       .  A
C479        C484   1.402       .  A
C480        C481   1.396       .  A
C480        H485   1.085       .  S
C481        C482   1.402       .  A
C482        C483   1.413       .  A
C482        H486   1.077       .  S
C483        C484   1.411       .  A
C483        C492   1.513       .  S
C484        H487   1.077       .  S
C488        C489   1.401       .  A
C488        C493   1.401       .  A
C489        C490   1.402       .  A
C489        H494   1.084       .  S
C490        C491   1.399       .  A
C491        C492   1.414       .  A
C491        H495   1.076       .  S
C492        C493   1.415       .  A
C493        H496   1.078       .  S
C497        C498   1.405       .  A
C497        C502   1.411       .  A
C497        C653   1.493       .  S
C498        C499   1.392       .  A
C498        H503   1.084       .  S
C499        C500   1.390       .  A
C499        C543   1.470       .  S
C500        C501   1.405       .  A
C500        H504   1.084       .  S
C501        C502   1.419       .  A
C501        C528   1.472       .  S
C502        H505   1.083       .  S
C506        C507   1.411       .  A
C506        C511   1.404       .  A
C506        C642   1.493       .  S
C507        C508   1.418       .  A
C507        H512   1.083       .  S
C508        C509   1.406       .  A
C508        C522   1.472       .  S
C509        C510   1.392       .  A
C509        H513   1.084       .  S
C510        C511   1.393       .  A
C510        C612   1.469       .  S
C511        H762   1.084   1_554  S
H514        C759   1.084       .  S
O515       Ni521   1.914       .  S
O515        C536   1.267       .  A
O516       Ni539   1.922       .  S
O516        C525   1.269       .  A
O517       Ni521   1.899       .  S
O517       Ni539   1.905       .  S
O517       Ni533   1.921       .  S
O517        H540   0.965       .  S
C518        C630   1.498       .  S
C518        O535   1.283       .  A
C518        O527   1.277       .  A
O519       Ni538   1.922       .  S
O519        C525   1.269       .  A
O520       Ni538   1.906       .  S
O520        C522   1.266       .  A
Ni521       O524   1.899       .  S
Ni521       O526   1.907       .  S
C522        O532   1.272       .  A
O523       Ni539   1.945       .  S
O523        C529   1.282       .  A
O524        C529   1.276       .  A
C525        C550   1.470       .  S
O526        C528   1.266       .  A
O527       Ni538   1.908       .  S
C528        O534   1.271       .  A
C529        C621   1.489       .  S
H530        O531   0.967       .  S
O531       Ni539   1.924       .  S
O531       Ni533   1.911       .  S
O531       Ni538   1.901       .  S
O532       Ni533   1.925       .  S
Ni533       O537   1.925       .  S
Ni533       O535   1.951       .  S
O534       Ni539   1.921       .  S
C536        C603   1.469       .  S
C536        O537   1.271       .  A
C541        C542   1.397       .  A
C541        C546   1.404       .  A
C541        C561   1.469       .  S
C542        C543   1.395       .  A
C542        H547   1.085       .  S
C543        C544   1.401       .  A
C544        C793   1.411       .  A
C544        H548   1.078       .  S
C545        C792   1.412       .  A
C545        C794   1.410       .  A
C545        C554   1.512   1_556  S
C546        C793   1.412       .  A
C546        H549   1.077       .  S
C550        C551   1.402       .  A
C550        C555   1.402       .  A
C551        C552   1.401       .  A
C551        H556   1.084       .  S
C552        C553   1.399       .  A
C552        C598   1.470       .  S
C553        C554   1.414       .  A
C553        H557   1.078       .  S
C554        C555   1.415       .  A
C555        H558   1.077       .  S
C559        C560   1.405       .  A
C559        C564   1.410       .  A
C559        C704   1.493       .  S
C560        C561   1.394       .  A
C560        H565   1.084       .  S
C561        C562   1.392       .  A
C562        C563   1.405       .  A
C562        H566   1.084       .  S
C563        C564   1.418       .  A
C563        C584   1.471       .  S
C568        C573   1.406       .  A
C568        C715   1.492       .  S
C569        H574   1.083   1_545  S
C570        C571   1.404       .  A
C570        C590   1.470       .  S
C571        C572   1.390       .  A
C571        H575   1.084       .  S
C572        C573   1.391       .  A
C572        C614   1.469       .  S
C573        H824   1.084   1_554  S
H576        C821   1.084       .  S
O577       Ni583   1.915       .  S
O577        C598   1.267       .  A
O578       Ni601   1.923       .  S
O578        C587   1.269       .  A
O579       Ni583   1.899       .  S
O579       Ni595   1.921       .  S
O579        H602   0.965       .  S
C580        C683   1.496       .  S
C580        O589   1.278       .  A
O581       Ni600   1.922       .  S
O581        C587   1.268       .  A
O582       Ni600   1.906       .  S
Ni583       O586   1.903       .  S
Ni583       O588   1.904       .  S
C584        O594   1.272       .  A
O585        C591   1.282       .  A
O586        C591   1.277       .  A
C587        C607   1.470       .  S
O589       Ni600   1.908       .  S
C590        O596   1.271       .  A
C591        C692   1.489       .  S
H592        O593   0.967       .  S
O593       Ni601   1.923       .  S
O593       Ni600   1.901       .  S
O594       Ni595   1.924       .  S
Ni595       O599   1.925       .  S
Ni595       O597   1.949       .  S
O596       Ni601   1.922       .  S
C598        O599   1.271       .  A
C603        C604   1.399       .  A
C603        C608   1.402       .  A
C604        C605   1.413       .  A
C604        H609   1.079       .  S
C605        C606   1.415       .  A
C605        C616   1.511       .  S
C606        C607   1.401       .  A
C606        H610   1.077       .  S
C607        C608   1.402       .  A
C608        H611   1.084       .  S
C612        C613   1.397       .  A
C612        C865   1.404   1_554  A
C613        C614   1.395       .  A
C613        H618   1.084       .  S
C614        C863   1.400   1_554  A
C615        C862   1.404       .  A
C615        C616   1.412       .  A
C615        H619   1.078       .  S
C616        C617   1.410       .  A
C617        C860   1.400       .  A
C617        H620   1.078       .  S
C621        C622   1.403       .  A
C621        C626   1.409       .  A
C622        C623   1.391       .  A
C622        H627   1.084       .  S
C623        C624   1.390       .  A
C623        C678   1.468       .  S
C624        C625   1.405       .  A
C624        H628   1.084       .  S
C625        C626   1.417       .  A
C625        C652   1.470       .  S
C626        H629   1.083       .  S
C630        C631   1.413       .  A
C630        C635   1.407       .  A
C631        C632   1.421       .  A
C631        H636   1.083       .  S
C632        C633   1.403       .  A
C632        C646   1.473       .  S
C633        C634   1.388       .  A
C633        H637   1.084       .  S
C634        C635   1.394       .  A
C634        C727   1.468       .  S
C635        H638   1.084       .  S
O639      Ni1637   1.919       .  S
O639        C660   1.268       .  A
O640       Ni663   1.922       .  S
O640       C1641   1.270       .  A
O641      Ni1885   1.902       .  S
O641      Ni1655   1.908       .  S
O641       Ni657   1.924       .  S
O641        H664   0.966       .  S
C642        O659   1.281       .  A
C642        O899   1.277   1_554  A
O643       Ni662   1.918       .  S
O643        C649   1.268       .  A
O644       Ni662   1.907       .  S
O644        C646   1.266       .  A
Ni645      O1631   1.918   1_455  S
Ni645       O896   1.906   1_554  S
Ni645       O650   1.905       .  S
Ni645      O1881   1.901   1_554  S
C646        O656   1.273       .  A
O647       Ni663   1.949       .  S
O647        C653   1.283       .  A
O648       Ni893   1.902       .  S
O648        C653   1.277       .  A
C649       C1657   1.469       .  S
C649       O1632   1.269       .  A
O650        C652   1.265       .  A
O651       Ni662   1.901       .  S
O651        C890   1.277       .  A
C652        O658   1.271       .  A
H654        O903   0.966   1_554  S
O655      Ni1655   1.921       .  S
O655       Ni657   1.907       .  S
O655       Ni662   1.898       .  S
O655        H902   0.966       .  S
O656       Ni657   1.925       .  S
Ni657       O909   1.925       .  S
Ni657       O907   1.950       .  S
O658       Ni911   1.920   1_554  S
O659       Ni905   1.944   1_554  S
C660        C736   1.470       .  S
C660        O661   1.269       .  A
O661       Ni905   1.923   1_554  S
Ni663       O906   1.925       .  S
Ni663      O1633   1.906   1_455  S
Ni663      O1647   1.924   1_455  S
C665       C1658   1.400       .  A
C665        C670   1.399       .  A
C665       C1641   1.468       .  S
C666       C1657   1.402       .  A
C666       C1659   1.401       .  A
C666        H671   1.084       .  S
C667       C1658   1.401       .  A
C667        C668   1.400       .  A
C667       C1714   1.469       .  S
C668        C669   1.415       .  A
C668        H672   1.076       .  S
C669        C670   1.414       .  A
C669        C676   1.513       .  S
C670        H673   1.077       .  S
C674        C675   1.401       .  A
C674        C679   1.395       .  A
C674        C687   1.468       .  S
C675        C676   1.412       .  A
C675        H680   1.076       .  S
C676        C677   1.411       .  A
C677        C678   1.402       .  A
C677        H681   1.077       .  S
C678        C679   1.394       .  A
C679        H682   1.085       .  S
C683        C688   1.406       .  A
C684        H689   1.083   1_545  S
C685        C686   1.404       .  A
C685        C708   1.473       .  S
C686        C687   1.389       .  A
C686        H690   1.084       .  S
C687        C688   1.394       .  A
C688        H691   1.084       .  S
C692        C693   1.403       .  A
C692        C697   1.410       .  A
C693        C694   1.391       .  A
C693        H698   1.084       .  S
C694        C695   1.392       .  A
C694        C729   1.470       .  S
C695        C696   1.406       .  A
C695        H699   1.084       .  S
C696        C697   1.417       .  A
C696        C714   1.472       .  S
O701       Ni707   1.918       .  S
O701        C722   1.268       .  A
O702       Ni973   1.925   1_554  S
O702        C711   1.271       .  A
O703       Ni707   1.903       .  S
O703      Ni1711   1.925       .  S
O703        H974   0.967       .  S
C704        O721   1.283       .  A
C704        O713   1.277       .  A
O705      Ni1716   1.919       .  S
O705        C711   1.268       .  A
O706       Ni724   1.906       .  S
Ni707       O710   1.905       .  S
Ni707       O712   1.906       .  S
C708        O718   1.273       .  A
O709       Ni973   1.951   1_554  S
O710        C963   1.276       .  A
C711        C738   1.471       .  S
O713       Ni972   1.905       .  S
C714        O720   1.271       .  A
C715        O958   1.276   1_554  A
H716        O717   0.966       .  S
O717       Ni725   1.921       .  S
O717      Ni1215   1.906   1_565  S
O717      Ni1964   1.898       .  S
O718       Ni967   1.925   1_554  S
Ni719       O966   1.921       .  S
Ni719       O723   1.923       .  S
Ni719      O1695   1.924   1_455  S
Ni719      O1213   1.908       .  S
O720       Ni725   1.922       .  S
C722       C1659   1.471       .  S
C722       O1715   1.270       .  A
O723       C1714   1.269       .  A
Ni724      O1697   1.918   1_455  S
Ni724       O961   1.905   1_554  S
Ni724      O1957   1.899   1_454  S
Ni725       O950   1.923       .  S
Ni725       O957   1.945       .  S
H726        O951   0.967   1_554  S
C727        C728   1.396       .  A
C727        C732   1.402       .  A
C728        C729   1.395       .  A
C728        H733   1.085       .  S
C729        C730   1.403       .  A
C730        C731   1.411       .  A
C730        H734   1.077       .  S
C731        C732   1.412       .  A
C731        C740   1.514       .  S
C732        H735   1.076       .  S
C736        C737   1.401       .  A
C736        C741   1.399       .  A
C737        C738   1.401       .  A
C737        H742   1.084       .  S
C738        C739   1.401       .  A
C739        C740   1.415       .  A
C739        H743   1.078       .  S
C740        C741   1.415       .  A
C741        H744   1.076       .  S
C745        C746   1.405       .  A
C745        C750   1.411       .  A
C745        C901   1.493       .  S
C746        C747   1.393       .  A
C746        H751   1.084       .  S
C747        C748   1.391       .  A
C747        C791   1.469       .  S
C748        C749   1.406       .  A
C748        H752   1.084       .  S
C749        C750   1.418       .  A
C749        C776   1.472       .  S
C750        H753   1.083       .  S
C754        C755   1.412       .  A
C754        C759   1.406       .  A
C754        C890   1.494       .  S
C755        C756   1.420       .  A
C755        H760   1.083       .  S
C756        C757   1.405       .  A
C756        C770   1.473       .  S
C757        C758   1.390       .  A
C757        H761   1.084       .  S
C758        C759   1.391       .  A
C758        C860   1.470       .  S
O763       Ni769   1.922       .  S
O763        C784   1.269       .  A
O764       Ni787   1.924       .  S
O764        C773   1.270       .  A
O765       Ni769   1.901       .  S
O765       Ni787   1.910       .  S
O765       Ni781   1.924       .  S
O765        H788   0.966       .  S
C766        C878   1.489       .  S
C766        O783   1.282       .  A
C766        O775   1.276       .  A
O767       Ni786   1.913       .  S
O767        C773   1.267       .  A
O768       Ni786   1.907       .  S
O768        C770   1.266       .  A
Ni769       O772   1.908       .  S
Ni769       O774   1.906       .  S
C770        O780   1.272       .  A
O771       Ni787   1.948       .  S
O771        C777   1.282       .  A
O772        C777   1.278       .  A
C773        C798   1.468       .  S
O774        C776   1.266       .  A
O775       Ni786   1.899       .  S
C776        O782   1.272       .  A
C777        C869   1.496       .  S
H778        O779   0.966       .  S
O779       Ni787   1.921       .  S
O779       Ni781   1.903       .  S
O779       Ni786   1.899       .  S
O780       Ni781   1.923       .  S
Ni781       O785   1.921       .  S
Ni781       O783   1.945       .  S
O782       Ni787   1.924       .  S
C784        C851   1.469       .  S
C784        O785   1.269       .  A
C789        C790   1.395       .  A
C789        C794   1.400       .  A
C789        C809   1.469       .  S
C790        C791   1.397       .  A
C790        H795   1.085       .  S
C791        C792   1.404       .  A
C792        H796   1.077       .  S
C793        C802   1.512       .  S
C794        H797   1.077       .  S
C798        C799   1.401       .  A
C798        C803   1.398       .  A
C799        C800   1.402       .  A
C799        H804   1.084       .  S
C800        C801   1.402       .  A
C800        C846   1.470       .  S
C801        C802   1.415       .  A
C801        H805   1.077       .  S
C802        C803   1.413       .  A
C803        H806   1.078       .  S
C807        C808   1.405       .  A
C807        C812   1.412       .  A
C807        C952   1.494       .  S
C808        C809   1.392       .  A
C808        H813   1.084       .  S
C809        C810   1.390       .  A
C810        C811   1.405       .  A
C810        H814   1.084       .  S
C811        C812   1.420       .  A
C811        C832   1.474       .  S
C816        C821   1.405       .  A
C816        C963   1.492       .  S
C817        H822   1.083   1_545  S
C818        C819   1.407       .  A
C818        C838   1.472       .  S
C819        C820   1.393       .  A
C819        H823   1.084       .  S
C820        C821   1.394       .  A
C820        C862   1.471       .  S
O825       Ni831   1.922       .  S
O825        C846   1.269       .  A
O826       Ni849   1.923       .  S
O826        C835   1.270       .  A
O827       Ni831   1.902       .  S
O827       Ni843   1.924       .  S
O827        H850   0.967       .  S
C828        C931   1.488       .  S
C828        O837   1.276       .  A
O829       Ni848   1.913       .  S
O829        C835   1.267       .  A
O830       Ni848   1.907       .  S
Ni831       O834   1.909       .  S
Ni831       O836   1.907       .  S
C832        O842   1.272       .  A
O833        C839   1.283       .  A
O834        C839   1.277       .  A
C835        C855   1.468       .  S
O837       Ni848   1.899       .  S
C838        O844   1.271       .  A
C839        C940   1.498       .  S
H840        O841   0.966       .  S
O841       Ni849   1.920       .  S
O841       Ni848   1.898       .  S
O842       Ni843   1.924       .  S
Ni843       O847   1.923       .  S
Ni843       O845   1.944       .  S
O844       Ni849   1.923       .  S
C846        O847   1.269       .  A
C851        C852   1.401       .  A
C851        C856   1.402       .  A
C852        C853   1.415       .  A
C852        H857   1.077       .  S
C853        C854   1.412       .  A
C853        C864   1.510       .  S
C854        C855   1.398       .  A
C854        H858   1.079       .  S
C855        C856   1.401       .  A
C856        H859   1.084       .  S
C860        C861   1.396       .  A
C861        C862   1.398       .  A
C861        H866   1.084       .  S
C863        C864   1.410       .  A
C863        H867   1.078       .  S
C864        C865   1.412       .  A
C865        H868   1.078       .  S
C869        C870   1.406       .  A
C869        C874   1.413       .  A
C870        C871   1.394       .  A
C870        H875   1.084       .  S
C871        C872   1.391       .  A
C871        C926   1.470       .  S
C872        C873   1.405       .  A
C872        H876   1.084       .  S
C873        C874   1.420       .  A
C873        C900   1.475       .  S
C874        H877   1.083       .  S
C878        C879   1.409       .  A
C878        C883   1.404       .  A
C879        C880   1.417       .  A
C879        H884   1.083       .  S
C880        C881   1.405       .  A
C880        C894   1.470       .  S
C881        C882   1.391       .  A
C881        H885   1.084       .  S
C882        C883   1.391       .  A
C882        C975   1.468       .  S
C883        H886   1.084       .  S
O887      Ni1885   1.917       .  S
O887        C908   1.267       .  A
O888       Ni911   1.923       .  S
O888       C1889   1.269       .  A
O889      Ni1637   1.898   1_556  S
O889      Ni1903   1.907       .  S
O889       Ni905   1.920       .  S
O889        H912   0.966       .  S
C890        O907   1.283       .  A
O891       Ni910   1.918       .  S
O891        C897   1.267       .  A
O892       Ni910   1.904       .  S
O892        C894   1.265       .  A
Ni893      O1879   1.919   1_455  S
Ni893       O898   1.909       .  S
Ni893      O1633   1.898   1_455  S
C894        O904   1.271       .  A
O895       Ni911   1.945       .  S
O895        C901   1.282       .  A
O896        C901   1.277       .  A
C897       C1905   1.470       .  S
C897       O1880   1.271       .  A
O898        C900   1.267       .  A
O899       Ni910   1.906       .  S
C900        O906   1.273       .  A
O903      Ni1903   1.925       .  S
O903       Ni905   1.910       .  S
O903       Ni910   1.903       .  S
O904       Ni905   1.922       .  S
C908        C984   1.470       .  S
C908        O909   1.271       .  A
Ni911      O1881   1.909       .  S
Ni911      O1895   1.921   1_455  S
C913       C1906   1.402       .  A
C913        C918   1.399       .  A
C913       C1889   1.470       .  S
C914       C1905   1.401       .  A
C914       C1907   1.402       .  A
C914        H919   1.084       .  S
C915       C1906   1.402       .  A
C915        C916   1.401       .  A
C915       C1962   1.471       .  S
C916        C917   1.415       .  A
C916        H920   1.078       .  S
C917        C918   1.415       .  A
C917        C924   1.515       .  S
C918        H921   1.076       .  S
C922        C923   1.403       .  A
C922        C927   1.395       .  A
C922        C935   1.470       .  S
C923        C924   1.411       .  A
C923        H928   1.077       .  S
C924        C925   1.413       .  A
C925        C926   1.403       .  A
C925        H929   1.076       .  S
C926        C927   1.396       .  A
C927        H930   1.085       .  S
C931        C936   1.403       .  A
C932        H937   1.083   1_545  S
C933        C934   1.406       .  A
C933        C956   1.471       .  S
C934        C935   1.392       .  A
C934        H938   1.084       .  S
C935        C936   1.390       .  A
C936        H939   1.084       .  S
C940        C941   1.407       .  A
C940        C945   1.413       .  A
C941        C942   1.395       .  A
C941        H946   1.084       .  S
C942        C943   1.390       .  A
C942        C977   1.470       .  S
C943        C944   1.404       .  A
C943        H947   1.084       .  S
C944        C945   1.420       .  A
C944        C962   1.474       .  S
O949       Ni955   1.917       .  S
O949        C970   1.268       .  A
O950        C959   1.269       .  A
O951       Ni955   1.897       .  S
O951      Ni1959   1.919       .  S
C952        O969   1.283       .  A
C952        O961   1.278       .  A
O953      Ni1964   1.917       .  S
O953        C959   1.268       .  A
O954       Ni972   1.907       .  S
Ni955       O958   1.899       .  S
Ni955       O960   1.908       .  S
C956        O966   1.271       .  A
C959        C986   1.469       .  S
C962        O968   1.273       .  A
H964        O965   0.966       .  S
O965       Ni973   1.925       .  S
O965      Ni1463   1.909   1_565  S
O965      Ni1716   1.902   1_556  S
Ni967       O971   1.925       .  S
Ni967      O1943   1.924   1_455  S
Ni967      O1461   1.906   1_455  S
O968       Ni973   1.927       .  S
C970       C1907   1.469       .  S
C970       O1963   1.269       .  A
O971       C1962   1.271       .  A
Ni972      O1945   1.919   1_455  S
Ni972      O1709   1.902       .  S
C975        C976   1.395       .  A
C975        C980   1.402       .  A
C976        C977   1.396       .  A
C976        H981   1.085       .  S
C977        C978   1.402       .  A
C978        C979   1.413       .  A
C978        H982   1.077       .  S
C979        C980   1.411       .  A
C979        C988   1.513       .  S
C980        H983   1.077       .  S
C984        C985   1.401       .  A
C984        C989   1.401       .  A
C985        C986   1.402       .  A
C985        H990   1.084       .  S
C986        C987   1.399       .  A
C987        C988   1.414       .  A
C987        H991   1.076       .  S
C988        C989   1.415       .  A
C989        H992   1.078       .  S
C993        C994   1.404       .  A
C993        C998   1.409       .  A
C993       C1149   1.491       .  S
C994        C995   1.394       .  A
C994        H999   1.084       .  S
C995        C996   1.392       .  A
C995       C1039   1.470       .  S
C996        C997   1.406       .  A
C996       H1000   1.084       .  S
C997        C998   1.417       .  A
C997       C1024   1.470       .  S
C998       H1001   1.083       .  S
C1002      C1003   1.412       .  A
C1002      C1007   1.405       .  A
C1002      C1138   1.494       .  S
C1003      C1004   1.420       .  A
C1003      H1008   1.083       .  S
C1004      C1005   1.405       .  A
C1004      C1018   1.472       .  S
C1005      C1006   1.390       .  A
C1005      H1009   1.084       .  S
C1006      C1007   1.391       .  A
C1006      C1108   1.469       .  S
C1007      H1258   1.084   1_554  S
H1010      C1255   1.084       .  S
O1011     Ni1017   1.922       .  S
O1011      C1032   1.269       .  A
O1012     Ni1035   1.926       .  S
O1012      C1021   1.271       .  A
O1013     Ni1017   1.902       .  S
O1013     Ni1035   1.912       .  S
O1013     Ni1029   1.924       .  S
O1013      H1036   0.965       .  S
C1014      C1126   1.489       .  S
C1014      O1031   1.282       .  A
C1014      O1023   1.276       .  A
O1015     Ni1034   1.914       .  S
O1015      C1021   1.267       .  A
O1016     Ni1034   1.906       .  S
O1016      C1018   1.266       .  A
Ni1017     O1020   1.909       .  S
Ni1017     O1022   1.905       .  S
C1018      O1028   1.272       .  A
O1019     Ni1035   1.949       .  S
O1019      C1025   1.283       .  A
O1020      C1025   1.277       .  A
C1021      C1046   1.470       .  S
O1022      C1024   1.266       .  A
O1023     Ni1034   1.899       .  S
C1024      O1030   1.271       .  A
C1025      C1117   1.497       .  S
H1026      O1027   0.967       .  S
O1027     Ni1035   1.921       .  S
O1027     Ni1029   1.905       .  S
O1027     Ni1034   1.899       .  S
O1028     Ni1029   1.922       .  S
Ni1029     O1033   1.922       .  S
Ni1029     O1031   1.945       .  S
O1030     Ni1035   1.923       .  S
C1032      C1099   1.470       .  S
C1032      O1033   1.269       .  A
C1037      C1038   1.395       .  A
C1037      C1042   1.400       .  A
C1037      C1057   1.468       .  S
C1038      C1039   1.397       .  A
C1038      H1043   1.085       .  S
C1039      C1040   1.404       .  A
C1040      C1289   1.413       .  A
C1040      H1044   1.077       .  S
C1041      C1288   1.411       .  A
C1041      C1290   1.412       .  A
C1041      C1050   1.513   1_556  S
C1042      C1289   1.409       .  A
C1042      H1045   1.078       .  S
C1046      C1047   1.401       .  A
C1046      C1051   1.399       .  A
C1047      C1048   1.402       .  A
C1047      H1052   1.084       .  S
C1048      C1049   1.403       .  A
C1048      C1094   1.472       .  S
C1049      C1050   1.416       .  A
C1049      H1053   1.077       .  S
C1050      C1051   1.413       .  A
C1051      H1054   1.079       .  S
C1055      C1056   1.405       .  A
C1055      C1060   1.413       .  A
C1055      C1200   1.494       .  S
C1056      C1057   1.391       .  A
C1056      H1061   1.084       .  S
C1057      C1058   1.389       .  A
C1058      C1059   1.404       .  A
C1058      H1062   1.084       .  S
C1059      C1060   1.421       .  A
C1059      C1080   1.473       .  S
C1060      H1559   1.083       .  S
H1063      C1556   1.083       .  S
C1064      C1561   1.410       .  A
C1064      C1069   1.404       .  A
C1064      C1211   1.492       .  S
C1065      C1560   1.410       .  A
C1065      C1562   1.418       .  A
C1065      H1070   1.083       .  S
C1066      C1561   1.418       .  A
C1066      C1067   1.405       .  A
C1066      C1086   1.472   1_545  S
C1067      C1068   1.392       .  A
C1067      H1071   1.084       .  S
C1068      C1069   1.393       .  A
C1068      C1110   1.469       .  S
C1069      H1320   1.084   1_554  S
H1072      C1317   1.084       .  S
O1073     Ni1079   1.925       .  S
O1073      C1094   1.270       .  A
O1074     Ni1097   1.924       .  S
O1074      C1083   1.270       .  A
O1075     Ni1079   1.902       .  S
O1075     Ni1593   1.911       .  S
O1075     Ni1091   1.924       .  S
O1075      H1098   0.965       .  S
C1076      C1179   1.489       .  S
C1076      O1589   1.282   1_545  A
C1076      O1085   1.277       .  A
O1077     Ni1096   1.915       .  S
O1077      C1083   1.267       .  A
O1078     Ni1096   1.907       .  S
O1078      C1576   1.266   1_545  A
Ni1079     O1082   1.912       .  S
Ni1079     O1084   1.906       .  S
C1080      O1574   1.266       .  A
C1080      O1090   1.273       .  A
O1081     Ni1593   1.949       .  S
O1081      C1087   1.282       .  A
O1082      C1087   1.278       .  A
C1083      C1103   1.469       .  S
O1084      C1582   1.266       .  A
O1085     Ni1096   1.900       .  S
C1086      O1580   1.266       .  A
C1086      O1092   1.272   1_565  A
C1087      C1188   1.498       .  S
H1088      O1089   0.967       .  S
O1089     Ni1097   1.921       .  S
O1089     Ni1587   1.904   1_545  S
O1089     Ni1096   1.899       .  S
O1090     Ni1091   1.924       .  S
Ni1091     O1095   1.924       .  S
Ni1091     O1093   1.944       .  S
Ni1091     O1585   1.904       .  S
O1092     Ni1097   1.924       .  S
O1093      C1572   1.282       .  A
C1094      O1095   1.270       .  A
Ni1097     O1577   1.949   1_545  S
Ni1097     O1571   1.911   1_545  S
C1099      C1100   1.401       .  A
C1099      C1104   1.402       .  A
C1100      C1101   1.415       .  A
C1100      H1105   1.077       .  S
C1101      C1102   1.413       .  A
C1101      C1112   1.512       .  S
C1102      C1103   1.398       .  A
C1102      H1106   1.078       .  S
C1103      C1104   1.401       .  A
C1104      H1107   1.084       .  S
C1108      C1109   1.395       .  A
C1108      C1361   1.400   1_554  A
C1109      C1110   1.397       .  A
C1109      H1114   1.085       .  S
C1110      C1359   1.404   1_554  A
C1111      C1358   1.401       .  A
C1111      C1112   1.411       .  A
C1111      H1115   1.078       .  S
C1112      C1113   1.412       .  A
C1113      C1356   1.404       .  A
C1113      H1116   1.077       .  S
C1117      C1118   1.407       .  A
C1117      C1122   1.413       .  A
C1118      C1119   1.395       .  A
C1118      H1123   1.084       .  S
C1119      C1120   1.390       .  A
C1119      C1174   1.470       .  S
C1120      C1121   1.405       .  A
C1120      H1124   1.084       .  S
C1121      C1122   1.420       .  A
C1121      C1148   1.474       .  S
C1122      H1125   1.083       .  S
C1126      C1127   1.410       .  A
C1126      C1131   1.404       .  A
C1127      C1128   1.417       .  A
C1127      H1132   1.083       .  S
C1128      C1129   1.406       .  A
C1128      C1142   1.471       .  S
C1129      C1130   1.392       .  A
C1129      H1133   1.084       .  S
C1130      C1131   1.390       .  A
C1130      C1223   1.469       .  S
C1131      H1134   1.084       .  S
O1135      C1156   1.267       .  A
O1136     Ni1159   1.923       .  S
O1137     Ni1153   1.921       .  S
O1137      H1160   0.966       .  S
C1138      O1155   1.283       .  A
C1138      O1395   1.277   1_554  A
O1139     Ni1158   1.917       .  S
O1139      C1145   1.267   1_655  A
O1140     Ni1158   1.906       .  S
O1140      C1142   1.266       .  A
Ni1141     O1392   1.901   1_554  S
Ni1141     O1146   1.908       .  S
C1142      O1152   1.271       .  A
O1143     Ni1159   1.944       .  S
O1143      C1149   1.282       .  A
O1144     Ni1389   1.905       .  S
O1144      C1149   1.277       .  A
O1146      C1148   1.266       .  A
O1147     Ni1158   1.905       .  S
O1147      C1386   1.277       .  A
C1148      O1154   1.273       .  A
H1150      O1399   0.966   1_554  S
O1151     Ni1153   1.907       .  S
O1151     Ni1158   1.902       .  S
O1151      H1398   0.966       .  S
O1152     Ni1153   1.921       .  S
Ni1153     O1405   1.923       .  S
Ni1153     O1403   1.944       .  S
O1154     Ni1407   1.926   1_554  S
O1155     Ni1401   1.950   1_554  S
C1156      C1232   1.471       .  S
C1156      O1157   1.271       .  A
O1157     Ni1401   1.925   1_554  S
Ni1159     O1402   1.922       .  S
C1161      C1166   1.399       .  A
C1162      H1167   1.084       .  S
C1163      C1164   1.400       .  A
C1164      C1165   1.415       .  A
C1164      H1168   1.078       .  S
C1165      C1166   1.414       .  A
C1165      C1172   1.513       .  S
C1166      H1169   1.077       .  S
C1170      C1171   1.402       .  A
C1170      C1175   1.396       .  A
C1170      C1183   1.469       .  S
C1171      C1172   1.410       .  A
C1171      H1176   1.077       .  S
C1172      C1173   1.413       .  A
C1173      C1174   1.403       .  A
C1173      H1177   1.077       .  S
C1174      C1175   1.397       .  A
C1175      H1178   1.084       .  S
C1179      C1676   1.410       .  A
C1179      C1184   1.403       .  A
C1180      C1675   1.410       .  A
C1180      C1677   1.418       .  A
C1180      H1185   1.083       .  S
C1181      C1676   1.418       .  A
C1181      C1182   1.406       .  A
C1181      C1204   1.473   1_545  S
C1182      C1183   1.392       .  A
C1182      H1186   1.084       .  S
C1183      C1184   1.391       .  A
C1184      H1187   1.084       .  S
C1188      C1189   1.406       .  A
C1188      C1193   1.414       .  A
C1189      C1190   1.394       .  A
C1189      H1194   1.084       .  S
C1190      C1191   1.390       .  A
C1190      C1225   1.470       .  S
C1191      C1192   1.405       .  A
C1191      H1195   1.084       .  S
C1192      C1193   1.421       .  A
C1192      C1210   1.476       .  S
C1193      H1692   1.083       .  S
H1196      C1689   1.083       .  S
O1197     Ni1203   1.917       .  S
O1197      C1218   1.268   1_655  A
O1198     Ni1469   1.922   1_554  S
O1198      C1207   1.269       .  A
O1199     Ni1203   1.899       .  S
O1199     Ni1717   1.907   1_545  S
O1199      H1470   0.967       .  S
C1200      O1217   1.283       .  A
C1200      O1209   1.277       .  A
O1201      C1207   1.268       .  A
O1202     Ni1220   1.907       .  S
O1202      C1700   1.266       .  A
Ni1203     O1206   1.903       .  S
Ni1203     O1208   1.908       .  S
C1204      O1698   1.266       .  A
C1204      O1214   1.272   1_565  A
O1205     Ni1469   1.945   1_554  S
O1205      C1707   1.282       .  A
O1206      C1459   1.277       .  A
C1207      C1234   1.468       .  S
O1208      C1706   1.266   1_545  A
O1209     Ni1468   1.901       .  S
C1210      O1704   1.266       .  A
C1210      O1216   1.273       .  A
C1211      O1701   1.282   1_545  A
C1211      O1454   1.277   1_554  A
H1212      O1213   0.966   1_655  S
O1213     Ni1221   1.924   1_455  S
O1214     Ni1463   1.922   1_554  S
Ni1215     O1462   1.926       .  S
Ni1215     O1219   1.924       .  S
Ni1215     O1713   1.951   1_545  S
O1216     Ni1221   1.927       .  S
O1217     Ni1711   1.950       .  S
Ni1220     O1457   1.907   1_554  S
Ni1221     O1446   1.924       .  S
Ni1221     O1453   1.951       .  S
Ni1221     O1695   1.907       .  S
H1222      O1447   0.967   1_554  S
C1223      C1224   1.396       .  A
C1223      C1228   1.402       .  A
C1224      C1225   1.396       .  A
C1224      H1229   1.085       .  S
C1225      C1226   1.402       .  A
C1226      C1227   1.413       .  A
C1226      H1230   1.077       .  S
C1227      C1228   1.410       .  A
C1227      C1236   1.513       .  S
C1228      H1231   1.078       .  S
C1232      C1233   1.401       .  A
C1232      C1237   1.402       .  A
C1233      C1234   1.401       .  A
C1233      H1238   1.084       .  S
C1234      C1235   1.398       .  A
C1235      C1236   1.414       .  A
C1235      H1239   1.076       .  S
C1236      C1237   1.415       .  A
C1237      H1240   1.078       .  S
C1241      C1242   1.407       .  A
C1241      C1246   1.412       .  A
C1241      C1397   1.495       .  S
C1242      C1243   1.392       .  A
C1242      H1247   1.084       .  S
C1243      C1244   1.390       .  A
C1243      C1287   1.471       .  S
C1244      C1245   1.405       .  A
C1244      H1248   1.084       .  S
C1245      C1246   1.420       .  A
C1245      C1272   1.473       .  S
C1246      H1249   1.083       .  S
C1250      C1251   1.410       .  A
C1250      C1255   1.404       .  A
C1250      C1386   1.492       .  S
C1251      C1252   1.418       .  A
C1251      H1256   1.083       .  S
C1252      C1253   1.406       .  A
C1252      C1266   1.473       .  S
C1253      C1254   1.392       .  A
C1253      H1257   1.084       .  S
C1254      C1255   1.394       .  A
C1254      C1356   1.470       .  S
O1259     Ni1265   1.913       .  S
O1259      C1280   1.267       .  A
O1260     Ni1283   1.921       .  S
O1260      C1269   1.269       .  A
O1261     Ni1265   1.898       .  S
O1261     Ni1283   1.903       .  S
O1261     Ni1277   1.920       .  S
O1261      H1284   0.966       .  S
C1262      C1374   1.496       .  S
C1262      O1279   1.282       .  A
C1262      O1271   1.278       .  A
O1263     Ni1282   1.922       .  S
O1263      C1269   1.269       .  A
O1264     Ni1282   1.907       .  S
O1264      C1266   1.266       .  A
Ni1265     O1268   1.898       .  S
Ni1265     O1270   1.906       .  S
C1266      O1276   1.272       .  A
O1267     Ni1283   1.945       .  S
O1267      C1273   1.282       .  A
O1268      C1273   1.276       .  A
C1269      C1294   1.469       .  S
O1270      C1272   1.265       .  A
O1271     Ni1282   1.909       .  S
C1272      O1278   1.272       .  A
C1273      C1365   1.488       .  S
H1274      O1275   0.965       .  S
O1275     Ni1283   1.924       .  S
O1275     Ni1277   1.909       .  S
O1275     Ni1282   1.902       .  S
O1276     Ni1277   1.925       .  S
Ni1277     O1281   1.924       .  S
Ni1277     O1279   1.948       .  S
O1278     Ni1283   1.923       .  S
C1280      C1347   1.469       .  S
C1280      O1281   1.271       .  A
C1285      C1286   1.397       .  A
C1285      C1290   1.404       .  A
C1285      C1305   1.470       .  S
C1286      C1287   1.395       .  A
C1286      H1291   1.085       .  S
C1287      C1288   1.401       .  A
C1288      H1292   1.078       .  S
C1289      C1298   1.511       .  S
C1290      H1293   1.077       .  S
C1294      C1295   1.401       .  A
C1294      C1299   1.400       .  A
C1295      C1296   1.401       .  A
C1295      H1300   1.084       .  S
C1296      C1297   1.399       .  A
C1296      C1342   1.468       .  S
C1297      C1298   1.414       .  A
C1297      H1301   1.078       .  S
C1298      C1299   1.414       .  A
C1299      H1302   1.077       .  S
C1303      C1304   1.404       .  A
C1303      C1308   1.411       .  A
C1303      C1448   1.492       .  S
C1304      C1305   1.393       .  A
C1304      H1309   1.084       .  S
C1305      C1306   1.392       .  A
C1306      C1307   1.406       .  A
C1306      H1310   1.084       .  S
C1307      C1308   1.418       .  A
C1307      C1328   1.473       .  S
C1308      H1807   1.083       .  S
H1311      C1804   1.083       .  S
C1312      C1809   1.412       .  A
C1312      C1317   1.406       .  A
C1312      C1459   1.496       .  S
C1313      C1808   1.412       .  A
C1313      C1810   1.420       .  A
C1313      H1318   1.083       .  S
C1314      C1809   1.420       .  A
C1314      C1315   1.405       .  A
C1314      C1334   1.474       .  S
C1315      C1316   1.390       .  A
C1315      H1319   1.084       .  S
C1316      C1317   1.392       .  A
C1316      C1358   1.470       .  S
O1321     Ni1327   1.914       .  S
O1321      C1342   1.267       .  A
O1322     Ni1345   1.923       .  S
O1322      C1331   1.269       .  A
O1323     Ni1327   1.900       .  S
O1323     Ni1841   1.906       .  S
O1323     Ni1339   1.920       .  S
O1323      H1346   0.967       .  S
C1324      C1427   1.497       .  S
C1324      O1837   1.282   1_545  A
C1324      O1333   1.277       .  A
O1325     Ni1344   1.923       .  S
O1325      C1331   1.269       .  A
O1326     Ni1344   1.908       .  S
O1326      C1824   1.267   1_545  A
Ni1327     O1330   1.899       .  S
Ni1327     O1332   1.906       .  S
C1328      O1822   1.267       .  A
C1328      O1338   1.272       .  A
O1329     Ni1841   1.946       .  S
O1329      C1335   1.282       .  A
O1330      C1335   1.276       .  A
C1331      C1351   1.471       .  S
O1332      C1830   1.266       .  A
O1333     Ni1344   1.909       .  S
C1334      O1828   1.266   1_545  A
C1334      O1340   1.272       .  A
C1335      C1436   1.490       .  S
H1336      O1337   0.965       .  S
O1337     Ni1345   1.925       .  S
O1337     Ni1835   1.913   1_545  S
O1337     Ni1344   1.903       .  S
O1338     Ni1339   1.924       .  S
Ni1339     O1343   1.924       .  S
Ni1339     O1341   1.948       .  S
Ni1339     O1833   1.913       .  S
O1340     Ni1345   1.924       .  S
O1341      C1820   1.282       .  A
C1342      O1343   1.270       .  A
Ni1345     O1825   1.946   1_545  S
Ni1345     O1819   1.906   1_545  S
C1347      C1348   1.398       .  A
C1347      C1352   1.401       .  A
C1348      C1349   1.413       .  A
C1348      H1353   1.078       .  S
C1349      C1350   1.416       .  A
C1349      C1360   1.512       .  S
C1350      C1351   1.402       .  A
C1350      H1354   1.077       .  S
C1351      C1352   1.402       .  A
C1352      H1355   1.084       .  S
C1356      C1357   1.397       .  A
C1357      C1358   1.395       .  A
C1357      H1362   1.084       .  S
C1359      C1360   1.412       .  A
C1359      H1363   1.077       .  S
C1360      C1361   1.410       .  A
C1361      H1364   1.078       .  S
C1365      C1366   1.403       .  A
C1365      C1370   1.408       .  A
C1366      C1367   1.391       .  A
C1366      H1371   1.084       .  S
C1367      C1368   1.392       .  A
C1367      C1422   1.469       .  S
C1368      C1369   1.406       .  A
C1368      H1372   1.084       .  S
C1369      C1370   1.417       .  A
C1369      C1396   1.470       .  S
C1370      H1373   1.083       .  S
C1374      C1375   1.413       .  A
C1374      C1379   1.406       .  A
C1375      C1376   1.420       .  A
C1375      H1380   1.083       .  S
C1376      C1377   1.404       .  A
C1376      C1390   1.474       .  S
C1377      C1378   1.390       .  A
C1377      H1381   1.084       .  S
C1378      C1379   1.394       .  A
C1378      C1471   1.469       .  S
C1379      H1382   1.084       .  S
O1383      C1404   1.269       .  A
O1384     Ni1407   1.926       .  S
O1385     Ni1401   1.924   1_455  S
O1385      H1408   0.966   1_455  S
C1386      O1403   1.282       .  A
O1387     Ni1406   1.918       .  S
O1387      C1393   1.269   1_655  A
O1388     Ni1406   1.908       .  S
O1388      C1390   1.266       .  A
Ni1389     O1394   1.904       .  S
C1390      O1400   1.273       .  A
O1391     Ni1407   1.951       .  S
O1391      C1397   1.284       .  A
O1392      C1397   1.277       .  A
O1394      C1396   1.265       .  A
O1395     Ni1406   1.901       .  S
C1396      O1402   1.271       .  A
O1399     Ni1401   1.906       .  S
O1399     Ni1406   1.897       .  S
O1400     Ni1401   1.925       .  S
C1404      C1480   1.470       .  S
C1404      O1405   1.269       .  A
C1409      C1414   1.400       .  A
C1410      H1415   1.084       .  S
C1411      C1412   1.400       .  A
C1412      C1413   1.415       .  A
C1412      H1416   1.077       .  S
C1413      C1414   1.414       .  A
C1413      C1420   1.512       .  S
C1414      H1417   1.078       .  S
C1418      C1419   1.402       .  A
C1418      C1423   1.396       .  A
C1418      C1431   1.468       .  S
C1419      C1420   1.412       .  A
C1419      H1424   1.077       .  S
C1420      C1421   1.411       .  A
C1421      C1422   1.402       .  A
C1421      H1425   1.078       .  S
C1422      C1423   1.395       .  A
C1423      H1426   1.085       .  S
C1427      C1924   1.414       .  A
C1427      C1432   1.406       .  A
C1428      C1923   1.414       .  A
C1428      C1925   1.421       .  A
C1428      H1433   1.083       .  S
C1429      C1924   1.421       .  A
C1429      C1430   1.404       .  A
C1429      C1452   1.474       .  S
C1430      C1431   1.389       .  A
C1430      H1434   1.084       .  S
C1431      C1432   1.394       .  A
C1432      H1435   1.084       .  S
C1436      C1437   1.404       .  A
C1436      C1441   1.409       .  A
C1437      C1438   1.391       .  A
C1437      H1442   1.084       .  S
C1438      C1439   1.392       .  A
C1438      C1473   1.470       .  S
C1439      C1440   1.406       .  A
C1439      H1443   1.084       .  S
C1440      C1441   1.418       .  A
C1440      C1458   1.472       .  S
C1441      H1940   1.083       .  S
H1444      C1937   1.083       .  S
O1445     Ni1451   1.917       .  S
O1445      C1466   1.267   1_655  A
O1446      C1455   1.271       .  A
O1447     Ni1451   1.902       .  S
O1447     Ni1965   1.908   1_545  S
C1448      O1465   1.281       .  A
C1448      O1457   1.277       .  A
O1449      C1455   1.268       .  A
O1450     Ni1468   1.907       .  S
O1450      C1948   1.266       .  A
Ni1451     O1454   1.905       .  S
Ni1451     O1456   1.906       .  S
C1452      O1946   1.266   1_545  A
C1452      O1462   1.273       .  A
O1453      C1955   1.283       .  A
C1455      C1482   1.471       .  S
O1456      C1954   1.266   1_545  A
C1458      O1952   1.266       .  A
C1458      O1464   1.271       .  A
C1459      O1949   1.283   1_545  A
H1460      O1461   0.966       .  S
O1461     Ni1469   1.921       .  S
Ni1463     O1467   1.922       .  S
Ni1463     O1961   1.943   1_545  S
O1464     Ni1469   1.922       .  S
O1465     Ni1959   1.943       .  S
Ni1469     O1943   1.908       .  S
C1471      C1472   1.396       .  A
C1471      C1476   1.402       .  A
C1472      C1473   1.395       .  A
C1472      H1477   1.085       .  S
C1473      C1474   1.403       .  A
C1474      C1475   1.411       .  A
C1474      H1478   1.078       .  S
C1475      C1476   1.412       .  A
C1475      C1484   1.513       .  S
C1476      H1479   1.077       .  S
C1480      C1481   1.402       .  A
C1480      C1485   1.400       .  A
C1481      C1482   1.402       .  A
C1481      H1486   1.084       .  S
C1482      C1483   1.401       .  A
C1483      C1484   1.415       .  A
C1483      H1487   1.078       .  S
C1484      C1485   1.415       .  A
C1485      H1488   1.076       .  S
C1489      C1490   1.404       .  A
C1489      C1494   1.409       .  A
C1489      C1645   1.491       .  S
C1490      C1491   1.394       .  A
C1490      H1495   1.084       .  S
C1491      C1492   1.392       .  A
C1491      C1535   1.470       .  S
C1492      C1493   1.406       .  A
C1492      H1496   1.084       .  S
C1493      C1494   1.417       .  A
C1493      C1520   1.470       .  S
C1494      H1497   1.083       .  S
C1498      C1499   1.412       .  A
C1498      C1503   1.405       .  A
C1498      C1634   1.494       .  S
C1499      C1500   1.420       .  A
C1499      H1504   1.083       .  S
C1500      C1501   1.405       .  A
C1500      C1514   1.472       .  S
C1501      C1502   1.390       .  A
C1501      H1505   1.084       .  S
C1502      C1503   1.391       .  A
C1502      C1604   1.469       .  S
C1503      H1754   1.084   1_554  S
H1506      C1751   1.084       .  S
O1507     Ni1513   1.922       .  S
O1507      C1528   1.269       .  A
O1508     Ni1531   1.926       .  S
O1508      C1517   1.271       .  A
O1509     Ni1513   1.902       .  S
O1509     Ni1531   1.912       .  S
O1509     Ni1525   1.924       .  S
O1509      H1532   0.965       .  S
C1510      C1622   1.489       .  S
C1510      O1527   1.282       .  A
C1510      O1519   1.276       .  A
O1511     Ni1530   1.914       .  S
O1511      C1517   1.267       .  A
O1512     Ni1530   1.906       .  S
O1512      C1514   1.266       .  A
Ni1513     O1516   1.909       .  S
Ni1513     O1518   1.905       .  S
C1514      O1524   1.272       .  A
O1515     Ni1531   1.949       .  S
O1515      C1521   1.283       .  A
O1516      C1521   1.277       .  A
C1517      C1542   1.470       .  S
O1518      C1520   1.266       .  A
O1519     Ni1530   1.899       .  S
C1520      O1526   1.271       .  A
C1521      C1613   1.497       .  S
H1522      O1523   0.967       .  S
O1523     Ni1531   1.921       .  S
O1523     Ni1525   1.905       .  S
O1523     Ni1530   1.899       .  S
O1524     Ni1525   1.922       .  S
Ni1525     O1529   1.922       .  S
Ni1525     O1527   1.945       .  S
O1526     Ni1531   1.923       .  S
C1528      C1595   1.470       .  S
C1528      O1529   1.269       .  A
C1533      C1534   1.395       .  A
C1533      C1538   1.400       .  A
C1533      C1553   1.468       .  S
C1534      C1535   1.397       .  A
C1534      H1539   1.085       .  S
C1535      C1536   1.404       .  A
C1536      C1785   1.413       .  A
C1536      H1540   1.077       .  S
C1537      C1784   1.411       .  A
C1537      C1786   1.412       .  A
C1537      C1546   1.513   1_556  S
C1538      C1785   1.409       .  A
C1538      H1541   1.078       .  S
C1542      C1543   1.401       .  A
C1542      C1547   1.399       .  A
C1543      C1544   1.402       .  A
C1543      H1548   1.084       .  S
C1544      C1545   1.403       .  A
C1544      C1590   1.472       .  S
C1545      C1546   1.416       .  A
C1545      H1549   1.077       .  S
C1546      C1547   1.413       .  A
C1547      H1550   1.079       .  S
C1551      C1552   1.405       .  A
C1551      C1556   1.413       .  A
C1551      C1696   1.494       .  S
C1552      C1553   1.391       .  A
C1552      H1557   1.084       .  S
C1553      C1554   1.389       .  A
C1554      C1555   1.404       .  A
C1554      H1558   1.084       .  S
C1555      C1556   1.421       .  A
C1555      C1576   1.473       .  S
C1560      C1565   1.404       .  A
C1560      C1707   1.492       .  S
C1561      H1566   1.083   1_545  S
C1562      C1563   1.405       .  A
C1562      C1582   1.472       .  S
C1563      C1564   1.392       .  A
C1563      H1567   1.084       .  S
C1564      C1565   1.393       .  A
C1564      C1606   1.469       .  S
C1565      H1816   1.084   1_554  S
H1568      C1813   1.084       .  S
O1569     Ni1575   1.925       .  S
O1569      C1590   1.270       .  A
O1570     Ni1593   1.924       .  S
O1570      C1579   1.270       .  A
O1571     Ni1575   1.902       .  S
O1571     Ni1587   1.924       .  S
O1571      H1594   0.965       .  S
C1572      C1675   1.489       .  S
C1572      O1581   1.277       .  A
O1573     Ni1592   1.915       .  S
O1573      C1579   1.267       .  A
O1574     Ni1592   1.907       .  S
Ni1575     O1578   1.912       .  S
Ni1575     O1580   1.906       .  S
C1576      O1586   1.273       .  A
O1577      C1583   1.282       .  A
O1578      C1583   1.278       .  A
C1579      C1599   1.469       .  S
O1581     Ni1592   1.900       .  S
C1582      O1588   1.272       .  A
C1583      C1684   1.498       .  S
H1584      O1585   0.967       .  S
O1585     Ni1593   1.921       .  S
O1585     Ni1592   1.899       .  S
O1586     Ni1587   1.924       .  S
Ni1587     O1591   1.924       .  S
Ni1587     O1589   1.944       .  S
O1588     Ni1593   1.924       .  S
C1590      O1591   1.270       .  A
C1595      C1596   1.401       .  A
C1595      C1600   1.402       .  A
C1596      C1597   1.415       .  A
C1596      H1601   1.077       .  S
C1597      C1598   1.413       .  A
C1597      C1608   1.512       .  S
C1598      C1599   1.398       .  A
C1598      H1602   1.078       .  S
C1599      C1600   1.401       .  A
C1600      H1603   1.084       .  S
C1604      C1605   1.395       .  A
C1604      C1857   1.400   1_554  A
C1605      C1606   1.397       .  A
C1605      H1610   1.085       .  S
C1606      C1855   1.404   1_554  A
C1607      C1854   1.401       .  A
C1607      C1608   1.411       .  A
C1607      H1611   1.078       .  S
C1608      C1609   1.412       .  A
C1609      C1852   1.404       .  A
C1609      H1612   1.077       .  S
C1613      C1614   1.407       .  A
C1613      C1618   1.413       .  A
C1614      C1615   1.395       .  A
C1614      H1619   1.084       .  S
C1615      C1616   1.390       .  A
C1615      C1670   1.470       .  S
C1616      C1617   1.405       .  A
C1616      H1620   1.084       .  S
C1617      C1618   1.420       .  A
C1617      C1644   1.474       .  S
C1618      H1621   1.083       .  S
C1622      C1623   1.410       .  A
C1622      C1627   1.404       .  A
C1623      C1624   1.417       .  A
C1623      H1628   1.083       .  S
C1624      C1625   1.406       .  A
C1624      C1638   1.471       .  S
C1625      C1626   1.392       .  A
C1625      H1629   1.084       .  S
C1626      C1627   1.390       .  A
C1626      C1719   1.469       .  S
C1627      H1630   1.084       .  S
O1631      C1652   1.267       .  A
O1632     Ni1655   1.923       .  S
O1633     Ni1649   1.921       .  S
O1633      H1656   0.966       .  S
C1634      O1651   1.283       .  A
C1634      O1891   1.277   1_554  A
O1635     Ni1654   1.917       .  S
O1635      C1641   1.267   1_655  A
O1636     Ni1654   1.906       .  S
O1636      C1638   1.266       .  A
Ni1637     O1888   1.901   1_554  S
Ni1637     O1642   1.908       .  S
C1638      O1648   1.271       .  A
O1639     Ni1655   1.944       .  S
O1639      C1645   1.282       .  A
O1640     Ni1885   1.905       .  S
O1640      C1645   1.277       .  A
O1642      C1644   1.266       .  A
O1643     Ni1654   1.905       .  S
O1643      C1882   1.277       .  A
C1644      O1650   1.273       .  A
H1646      O1895   0.966   1_554  S
O1647     Ni1649   1.907       .  S
O1647     Ni1654   1.902       .  S
O1647      H1894   0.966       .  S
O1648     Ni1649   1.921       .  S
Ni1649     O1901   1.923       .  S
Ni1649     O1899   1.944       .  S
O1650     Ni1903   1.926   1_554  S
O1651     Ni1897   1.950   1_554  S
C1652      C1728   1.471       .  S
C1652      O1653   1.271       .  A
O1653     Ni1897   1.925   1_554  S
Ni1655     O1898   1.922       .  S
C1657      C1662   1.399       .  A
C1658      H1663   1.084       .  S
C1659      C1660   1.400       .  A
C1660      C1661   1.415       .  A
C1660      H1664   1.078       .  S
C1661      C1662   1.414       .  A
C1661      C1668   1.513       .  S
C1662      H1665   1.077       .  S
C1666      C1667   1.402       .  A
C1666      C1671   1.396       .  A
C1666      C1679   1.469       .  S
C1667      C1668   1.410       .  A
C1667      H1672   1.077       .  S
C1668      C1669   1.413       .  A
C1669      C1670   1.403       .  A
C1669      H1673   1.077       .  S
C1670      C1671   1.397       .  A
C1671      H1674   1.084       .  S
C1675      C1680   1.403       .  A
C1676      H1681   1.083   1_545  S
C1677      C1678   1.406       .  A
C1677      C1700   1.473       .  S
C1678      C1679   1.392       .  A
C1678      H1682   1.084       .  S
C1679      C1680   1.391       .  A
C1680      H1683   1.084       .  S
C1684      C1685   1.406       .  A
C1684      C1689   1.414       .  A
C1685      C1686   1.394       .  A
C1685      H1690   1.084       .  S
C1686      C1687   1.390       .  A
C1686      C1721   1.470       .  S
C1687      C1688   1.405       .  A
C1687      H1691   1.084       .  S
C1688      C1689   1.421       .  A
C1688      C1706   1.476       .  S
O1693     Ni1699   1.917       .  S
O1693      C1714   1.268   1_655  A
O1694     Ni1965   1.922   1_554  S
O1694      C1703   1.269       .  A
O1695     Ni1699   1.899       .  S
O1695      H1966   0.967       .  S
C1696      O1713   1.283       .  A
C1696      O1705   1.277       .  A
O1697      C1703   1.268       .  A
O1698     Ni1716   1.907       .  S
Ni1699     O1702   1.903       .  S
Ni1699     O1704   1.908       .  S
C1700      O1710   1.272       .  A
O1701     Ni1965   1.945   1_554  S
O1702      C1955   1.277       .  A
C1703      C1730   1.468       .  S
O1705     Ni1964   1.901       .  S
C1706      O1712   1.273       .  A
C1707      O1950   1.277   1_554  A
H1708      O1709   0.966   1_655  S
O1709     Ni1717   1.924   1_455  S
O1710     Ni1959   1.922   1_554  S
Ni1711     O1958   1.926       .  S
Ni1711     O1715   1.924       .  S
O1712     Ni1717   1.927       .  S
Ni1716     O1953   1.907   1_554  S
Ni1717     O1942   1.924       .  S
Ni1717     O1949   1.951       .  S
H1718      O1943   0.967   1_554  S
C1719      C1720   1.396       .  A
C1719      C1724   1.402       .  A
C1720      C1721   1.396       .  A
C1720      H1725   1.085       .  S
C1721      C1722   1.402       .  A
C1722      C1723   1.413       .  A
C1722      H1726   1.077       .  S
C1723      C1724   1.410       .  A
C1723      C1732   1.513       .  S
C1724      H1727   1.078       .  S
C1728      C1729   1.401       .  A
C1728      C1733   1.402       .  A
C1729      C1730   1.401       .  A
C1729      H1734   1.084       .  S
C1730      C1731   1.398       .  A
C1731      C1732   1.414       .  A
C1731      H1735   1.076       .  S
C1732      C1733   1.415       .  A
C1733      H1736   1.078       .  S
C1737      C1738   1.407       .  A
C1737      C1742   1.412       .  A
C1737      C1893   1.495       .  S
C1738      C1739   1.392       .  A
C1738      H1743   1.084       .  S
C1739      C1740   1.390       .  A
C1739      C1783   1.471       .  S
C1740      C1741   1.405       .  A
C1740      H1744   1.084       .  S
C1741      C1742   1.420       .  A
C1741      C1768   1.473       .  S
C1742      H1745   1.083       .  S
C1746      C1747   1.410       .  A
C1746      C1751   1.404       .  A
C1746      C1882   1.492       .  S
C1747      C1748   1.418       .  A
C1747      H1752   1.083       .  S
C1748      C1749   1.406       .  A
C1748      C1762   1.473       .  S
C1749      C1750   1.392       .  A
C1749      H1753   1.084       .  S
C1750      C1751   1.394       .  A
C1750      C1852   1.470       .  S
O1755     Ni1761   1.913       .  S
O1755      C1776   1.267       .  A
O1756     Ni1779   1.921       .  S
O1756      C1765   1.269       .  A
O1757     Ni1761   1.898       .  S
O1757     Ni1779   1.903       .  S
O1757     Ni1773   1.920       .  S
O1757      H1780   0.966       .  S
C1758      C1870   1.496       .  S
C1758      O1775   1.282       .  A
C1758      O1767   1.278       .  A
O1759     Ni1778   1.922       .  S
O1759      C1765   1.269       .  A
O1760     Ni1778   1.907       .  S
O1760      C1762   1.266       .  A
Ni1761     O1764   1.898       .  S
Ni1761     O1766   1.906       .  S
C1762      O1772   1.272       .  A
O1763     Ni1779   1.945       .  S
O1763      C1769   1.282       .  A
O1764      C1769   1.276       .  A
C1765      C1790   1.469       .  S
O1766      C1768   1.265       .  A
O1767     Ni1778   1.909       .  S
C1768      O1774   1.272       .  A
C1769      C1861   1.488       .  S
H1770      O1771   0.965       .  S
O1771     Ni1779   1.924       .  S
O1771     Ni1773   1.909       .  S
O1771     Ni1778   1.902       .  S
O1772     Ni1773   1.925       .  S
Ni1773     O1777   1.924       .  S
Ni1773     O1775   1.948       .  S
O1774     Ni1779   1.923       .  S
C1776      C1843   1.469       .  S
C1776      O1777   1.271       .  A
C1781      C1782   1.397       .  A
C1781      C1786   1.404       .  A
C1781      C1801   1.470       .  S
C1782      C1783   1.395       .  A
C1782      H1787   1.085       .  S
C1783      C1784   1.401       .  A
C1784      H1788   1.078       .  S
C1785      C1794   1.511       .  S
C1786      H1789   1.077       .  S
C1790      C1791   1.401       .  A
C1790      C1795   1.400       .  A
C1791      C1792   1.401       .  A
C1791      H1796   1.084       .  S
C1792      C1793   1.399       .  A
C1792      C1838   1.468       .  S
C1793      C1794   1.414       .  A
C1793      H1797   1.078       .  S
C1794      C1795   1.414       .  A
C1795      H1798   1.077       .  S
C1799      C1800   1.404       .  A
C1799      C1804   1.411       .  A
C1799      C1944   1.492       .  S
C1800      C1801   1.393       .  A
C1800      H1805   1.084       .  S
C1801      C1802   1.392       .  A
C1802      C1803   1.406       .  A
C1802      H1806   1.084       .  S
C1803      C1804   1.418       .  A
C1803      C1824   1.473       .  S
C1808      C1813   1.406       .  A
C1808      C1955   1.496       .  S
C1809      H1814   1.083   1_545  S
C1810      C1811   1.405       .  A
C1810      C1830   1.474       .  S
C1811      C1812   1.390       .  A
C1811      H1815   1.084       .  S
C1812      C1813   1.392       .  A
C1812      C1854   1.470       .  S
O1817     Ni1823   1.914       .  S
O1817      C1838   1.267       .  A
O1818     Ni1841   1.923       .  S
O1818      C1827   1.269       .  A
O1819     Ni1823   1.900       .  S
O1819     Ni1835   1.920       .  S
O1819      H1842   0.967       .  S
C1820      C1923   1.497       .  S
C1820      O1829   1.277       .  A
O1821     Ni1840   1.923       .  S
O1821      C1827   1.269       .  A
O1822     Ni1840   1.908       .  S
Ni1823     O1826   1.899       .  S
Ni1823     O1828   1.906       .  S
C1824      O1834   1.272       .  A
O1825      C1831   1.282       .  A
O1826      C1831   1.276       .  A
C1827      C1847   1.471       .  S
O1829     Ni1840   1.909       .  S
C1830      O1836   1.272       .  A
C1831      C1932   1.490       .  S
H1832      O1833   0.965       .  S
O1833     Ni1841   1.925       .  S
O1833     Ni1840   1.903       .  S
O1834     Ni1835   1.924       .  S
Ni1835     O1839   1.924       .  S
Ni1835     O1837   1.948       .  S
O1836     Ni1841   1.924       .  S
C1838      O1839   1.270       .  A
C1843      C1844   1.398       .  A
C1843      C1848   1.401       .  A
C1844      C1845   1.413       .  A
C1844      H1849   1.078       .  S
C1845      C1846   1.416       .  A
C1845      C1856   1.512       .  S
C1846      C1847   1.402       .  A
C1846      H1850   1.077       .  S
C1847      C1848   1.402       .  A
C1848      H1851   1.084       .  S
C1852      C1853   1.397       .  A
C1853      C1854   1.395       .  A
C1853      H1858   1.084       .  S
C1855      C1856   1.412       .  A
C1855      H1859   1.077       .  S
C1856      C1857   1.410       .  A
C1857      H1860   1.078       .  S
C1861      C1862   1.403       .  A
C1861      C1866   1.408       .  A
C1862      C1863   1.391       .  A
C1862      H1867   1.084       .  S
C1863      C1864   1.392       .  A
C1863      C1918   1.469       .  S
C1864      C1865   1.406       .  A
C1864      H1868   1.084       .  S
C1865      C1866   1.417       .  A
C1865      C1892   1.470       .  S
C1866      H1869   1.083       .  S
C1870      C1871   1.413       .  A
C1870      C1875   1.406       .  A
C1871      C1872   1.420       .  A
C1871      H1876   1.083       .  S
C1872      C1873   1.404       .  A
C1872      C1886   1.474       .  S
C1873      C1874   1.390       .  A
C1873      H1877   1.084       .  S
C1874      C1875   1.394       .  A
C1874      C1967   1.469       .  S
C1875      H1878   1.084       .  S
O1879      C1900   1.269       .  A
O1880     Ni1903   1.926       .  S
O1881     Ni1897   1.924   1_455  S
O1881      H1904   0.966   1_455  S
C1882      O1899   1.282       .  A
O1883     Ni1902   1.918       .  S
O1883      C1889   1.269   1_655  A
O1884     Ni1902   1.908       .  S
O1884      C1886   1.266       .  A
Ni1885     O1890   1.904       .  S
C1886      O1896   1.273       .  A
O1887     Ni1903   1.951       .  S
O1887      C1893   1.284       .  A
O1888      C1893   1.277       .  A
O1890      C1892   1.265       .  A
O1891     Ni1902   1.901       .  S
C1892      O1898   1.271       .  A
O1895     Ni1897   1.906       .  S
O1895     Ni1902   1.897       .  S
O1896     Ni1897   1.925       .  S
C1900      C1976   1.470       .  S
C1900      O1901   1.269       .  A
C1905      C1910   1.400       .  A
C1906      H1911   1.084       .  S
C1907      C1908   1.400       .  A
C1908      C1909   1.415       .  A
C1908      H1912   1.077       .  S
C1909      C1910   1.414       .  A
C1909      C1916   1.512       .  S
C1910      H1913   1.078       .  S
C1914      C1915   1.402       .  A
C1914      C1919   1.396       .  A
C1914      C1927   1.468       .  S
C1915      C1916   1.412       .  A
C1915      H1920   1.077       .  S
C1916      C1917   1.411       .  A
C1917      C1918   1.402       .  A
C1917      H1921   1.078       .  S
C1918      C1919   1.395       .  A
C1919      H1922   1.085       .  S
C1923      C1928   1.406       .  A
C1924      H1929   1.083   1_545  S
C1925      C1926   1.404       .  A
C1925      C1948   1.474       .  S
C1926      C1927   1.389       .  A
C1926      H1930   1.084       .  S
C1927      C1928   1.394       .  A
C1928      H1931   1.084       .  S
C1932      C1933   1.404       .  A
C1932      C1937   1.409       .  A
C1933      C1934   1.391       .  A
C1933      H1938   1.084       .  S
C1934      C1935   1.392       .  A
C1934      C1969   1.470       .  S
C1935      C1936   1.406       .  A
C1935      H1939   1.084       .  S
C1936      C1937   1.418       .  A
C1936      C1954   1.472       .  S
O1941     Ni1947   1.917       .  S
O1941      C1962   1.267   1_655  A
O1942      C1951   1.271       .  A
O1943     Ni1947   1.902       .  S
C1944      O1961   1.281       .  A
C1944      O1953   1.277       .  A
O1945      C1951   1.268       .  A
O1946     Ni1964   1.907       .  S
Ni1947     O1950   1.905       .  S
Ni1947     O1952   1.906       .  S
C1948      O1958   1.273       .  A
C1951      C1978   1.471       .  S
C1954      O1960   1.271       .  A
H1956      O1957   0.966       .  S
O1957     Ni1965   1.921       .  S
Ni1959     O1963   1.922       .  S
O1960     Ni1965   1.922       .  S
C1967      C1968   1.396       .  A
C1967      C1972   1.402       .  A
C1968      C1969   1.395       .  A
C1968      H1973   1.085       .  S
C1969      C1970   1.403       .  A
C1970      C1971   1.411       .  A
C1970      H1974   1.078       .  S
C1971      C1972   1.412       .  A
C1971      C1980   1.513       .  S
C1972      H1975   1.077       .  S
C1976      C1977   1.402       .  A
C1976      C1981   1.400       .  A
C1977      C1978   1.402       .  A
C1977      H1982   1.084       .  S
C1978      C1979   1.401       .  A
C1979      C1980   1.415       .  A
C1979      H1983   1.078       .  S
C1980      C1981   1.415       .  A
C1981      H1984   1.076       .  S
