geometry optimzed in LAMMPS
_audit_creation_date              2020-11-30 
_audit_creation_method            'lammps2cif' 
_symmetry_space_group_name_H-M    'P1' 
_symmetry_Int_Tables_number       1 
_symmetry_cell_setting            triclinic 
loop_ 
_symmetry_equiv_pos_as_xyz 
  x,y,z 
_cell_length_a                    42.90403056 
_cell_length_b                    42.555619955030465 
_cell_length_c                    94.1424122489819 
_cell_angle_alpha                 90.07475311539011 
_cell_angle_beta                  90.1455275309332 
_cell_angle_gamma                 90.02841965363469 
loop_ 
_atom_site_label 
_atom_site_type_symbol 
_atom_site_fract_x 
_atom_site_fract_y 
_atom_site_fract_z 
_atom_site_charge 
In1        In  0.22308981  0.98963135  0.00256575     1.36900
C2          C  0.26156792  0.97613104  0.02400050     0.78900
O3          O  0.26345420  0.98169797  0.98810070    -0.59500
O4          O  0.23693884  0.02331560  0.98537266    -0.50500
C5          C  0.18880738  0.94727961  0.98861206     0.71600
O6          O  0.21007247  0.93953571  0.99719364    -0.45300
C7          C  0.18428090  0.03051789  0.01460445     0.76300
O8          O  0.23702426  0.96062897  0.02164110    -0.57200
O9          O  0.20757215  0.03870140  0.00739038    -0.47300
O10         O  0.26568079  0.99872859  0.01560383    -0.53600
C11         C  0.25982466  0.00702878  0.98135210     0.86500
O12         O  0.18544814  0.97650511  0.98728367    -0.55500
O13         O  0.18132785  0.00120716  0.01592865    -0.58800
In14       In  0.62307415  0.96336258  0.09356990     1.36900
C15         C  0.61375746  0.92677319  0.11580484     0.78900
O16         O  0.66809035  0.97495763  0.10374324    -0.59500
O17         O  0.63448858  0.01145240  0.10156602    -0.50500
C18         C  0.65293225  0.95836140  0.06921320     0.71600
O19         O  0.65363302  0.93666402  0.07837322    -0.45300
C20         C  0.56402843  0.96790288  0.08627625     0.76300
O21         O  0.62531798  0.91629090  0.10437951    -0.57200
O22         O  0.57930092  0.99102034  0.09104933    -0.47300
O23         O  0.60715944  0.95559751  0.11556721    -0.53600
C24         C  0.66099774  0.00322695  0.10610009     0.86500
O25         O  0.63597117  0.98143352  0.07245233    -0.55500
O26         O  0.57974036  0.94313793  0.08451496    -0.58800
In27       In  0.37193145  0.96459725  0.09694179     1.36900
C28         C  0.38156596  0.92912908  0.11947408     0.78900
O29         O  0.41535742  0.94260082  0.08895287    -0.59500
O30         O  0.41543456  0.99193365  0.09269583    -0.50500
C31         C  0.34243799  0.95989251  0.07232115     0.71600
O32         O  0.34054424  0.93870722  0.08170108    -0.45300
C33         C  0.33431803  0.00357285  0.11050969     0.76300
O34         O  0.36990272  0.91790483  0.10816317    -0.57200
O35         O  0.36124680  0.01164815  0.10645538    -0.47300
O36         O  0.38855887  0.95783352  0.11883287    -0.53600
C37         C  0.43075184  0.96789993  0.08899181     0.86500
O38         O  0.36014041  0.98249235  0.07550732    -0.55500
O39         O  0.32636491  0.97620168  0.10683663    -0.58800
In40       In  0.77524780  0.98383538  0.00070275     1.36900
C41         C  0.73477192  0.99900873  0.98015922     0.78900
O42         O  0.81588542  0.97131374  0.98670691    -0.59500
O43         O  0.79081498  0.93404746  0.99599630    -0.50500
C44         C  0.81223503  0.02536858  0.01389476     0.71600
O45         O  0.79474556  0.03261081  0.00362992    -0.45300
C46         C  0.73651581  0.97200564  0.02194390     0.76300
O47         O  0.75883866  0.01492777  0.98287116    -0.57200
O48         O  0.75660636  0.95223464  0.01793322    -0.47300
O49         O  0.73198274  0.97473471  0.98768650    -0.53600
C50         C  0.81323961  0.94203701  0.98817464     0.86500
O51         O  0.81066820  0.99680806  0.01738640    -0.55500
O52         O  0.73719578  0.99770670  0.01532123    -0.58800
In53       In  0.36634430  0.03192761  0.90810134     1.36900
C54         C  0.37756601  0.07061482  0.88669210     0.78900
O55         O  0.41065969  0.04996917  0.91761843    -0.59500
O56         O  0.40975283  0.00338158  0.90947800    -0.50500
C57         C  0.33683514  0.03274028  0.93278122     0.71600
O58         O  0.33548955  0.05586620  0.92435172    -0.45300
C59         C  0.32882936  0.99228254  0.89488986     0.76300
O60         O  0.36427979  0.08023118  0.89790340    -0.57200
O61         O  0.35533537  0.98441847  0.89950704    -0.47300
O62         O  0.38396529  0.04176938  0.88666005    -0.53600
C63         C  0.42579520  0.02520431  0.91490121     0.86500
O64         O  0.35410894  0.01060627  0.92871043    -0.55500
O65         O  0.32153441  0.02052829  0.89725153    -0.58800
In66       In  0.61956623  0.02397132  0.90933421     1.36900
C67         C  0.60933247  0.06263832  0.88768556     0.78900
O68         O  0.66420063  0.01289535  0.89863282    -0.59500
O69         O  0.63019512  0.97670635  0.89993951    -0.50500
C70         C  0.65029826  0.02424445  0.93380385     0.71600
O71         O  0.65134777  0.04726189  0.92530791    -0.45300
C72         C  0.56000410  0.02006983  0.91616950     0.76300
O73         O  0.62168683  0.07243851  0.89912466    -0.57200
O74         O  0.57491129  0.99718197  0.91097955    -0.47300
O75         O  0.60311940  0.03374350  0.88765035    -0.53600
C76         C  0.65672770  0.98505072  0.89550373     0.86500
O77         O  0.63230668  0.00232631  0.93002674    -0.55500
O78         O  0.57642142  0.04404453  0.91880103    -0.58800
In79       In  0.62157164  0.47621297  0.90984738     1.36900
C80         C  0.60845402  0.43881172  0.88813477     0.78900
O81         O  0.58046970  0.45484193  0.92042230    -0.59500
O82         O  0.57777193  0.50269184  0.91389344    -0.50500
C83         C  0.65604236  0.47387369  0.93306683     0.71600
O84         O  0.65502118  0.45134228  0.92429961    -0.45300
C85         C  0.65850150  0.51342929  0.89516022     0.76300
O86         O  0.62302539  0.42897939  0.89898701    -0.57200
O87         O  0.63323600  0.52344240  0.90041364    -0.47300
O88         O  0.60039176  0.46726856  0.88874074    -0.53600
C89         C  0.56384365  0.47916160  0.91909670     0.86500
O90         O  0.63808819  0.49651234  0.93027716    -0.55500
O91         O  0.66469937  0.48519936  0.89798780    -0.58800
In92       In  0.37141463  0.47062248  0.91195525     1.36900
C93         C  0.37987964  0.43287999  0.88995099     0.78900
O94         O  0.32925066  0.48375757  0.89957866    -0.59500
O95         O  0.36262246  0.51934792  0.90381590    -0.50500
C96         C  0.34069948  0.46690204  0.93634673     0.71600
O97         O  0.33979488  0.44509710  0.92722431    -0.45300
C98         C  0.43051959  0.47511044  0.91946586     0.76300
O99         O  0.36623278  0.42336370  0.90106747    -0.57200
O100        O  0.41520859  0.49780909  0.91441618    -0.47300
O101        O  0.38995130  0.46061721  0.89063353    -0.53600
C102        C  0.33771778  0.51175340  0.89753131     0.86500
O103        O  0.35764218  0.48982704  0.93293701    -0.55500
O104        O  0.41490583  0.45026996  0.92129398    -0.58800
In105      In  0.21723641  0.48919961  0.00443919     1.36900
C106        C  0.18121609  0.53015505  0.99037701     0.78900
O107        O  0.25866212  0.50320590  0.99164342    -0.59500
O108        O  0.23945841  0.45788835  0.98823106    -0.50500
C109        C  0.25477414  0.49772529  0.02673387     0.71600
O110        O  0.23772368  0.51928323  0.02177406    -0.45300
C111        C  0.17605443  0.44914762  0.01513570     0.76300
O112        O  0.19593253  0.53730425  0.00155343    -0.57200
O113        O  0.19547236  0.44159275  0.00571279    -0.47300
O114        O  0.18491643  0.50203383  0.98654808    -0.53600
C115        C  0.26005987  0.47766033  0.98487289     0.86500
O116        O  0.25198808  0.47178207  0.02039063    -0.55500
O117        O  0.17751446  0.47753657  0.01893453    -0.58800
In118      In  0.78282777  0.49590546  0.00055265     1.36900
C119        C  0.81779029  0.45107497  0.01190917     0.78900
O120        O  0.82067134  0.50640819  0.98517394    -0.59500
O121        O  0.80580178  0.54336716  0.99864518    -0.50500
C122        C  0.74420516  0.48764526  0.97882774     0.71600
O123        O  0.76484949  0.46782111  0.98203889    -0.45300
C124        C  0.74279513  0.50795433  0.02149551     0.76300
O125        O  0.79615144  0.44544449  0.00321579    -0.57200
O126        O  0.76463626  0.52658355  0.01838186    -0.47300
O127        O  0.82109650  0.47972976  0.01496175    -0.53600
C128        C  0.82363449  0.53477123  0.98874112     0.86500
O129        O  0.74417934  0.51206528  0.98642301    -0.55500
O130        O  0.74237517  0.48320542  0.01414843    -0.58800
In131      In  0.62310424  0.51941703  0.09172692     1.36900
C132        C  0.60923670  0.55653123  0.11337392     0.78900
O133        O  0.57809335  0.53641456  0.08238014    -0.59500
O134        O  0.58122587  0.48893536  0.08924732    -0.50500
C135        C  0.65530396  0.52350527  0.06763588     0.71600
O136        O  0.65441294  0.54594404  0.07645836    -0.45300
C137        C  0.66123511  0.48276199  0.10646995     0.76300
O138        O  0.62184118  0.56715119  0.10218494    -0.57200
O139        O  0.63664955  0.47259171  0.10064088    -0.47300
O140        O  0.60371131  0.52749094  0.11310952    -0.53600
C141        C  0.56410177  0.51072598  0.08454885     0.86500
O142        O  0.63854962  0.50033177  0.07095077    -0.55500
O143        O  0.66679658  0.51140674  0.10417264    -0.58800
In144      In  0.37393032  0.51905782  0.09759888     1.36900
C145        C  0.33741302  0.48355654  0.11350780     0.78900
O146        O  0.39767767  0.53401835  0.11732155    -0.59500
O147        O  0.37427426  0.56943792  0.10552903    -0.50500
C148        C  0.43081030  0.50956772  0.08796141     0.71600
O149        O  0.41641448  0.48964306  0.09540949    -0.45300
C150        C  0.33886854  0.51531871  0.07443286     0.76300
O151        O  0.36318303  0.47392605  0.10873845    -0.57200
O152        O  0.34105816  0.54047582  0.08157331    -0.47300
O153        O  0.33110155  0.51170064  0.11044014    -0.53600
C154        C  0.39066389  0.56266385  0.11631384     0.86500
O155        O  0.41504157  0.53356728  0.08468181    -0.55500
O156        O  0.35564833  0.49318332  0.07893663    -0.58800
In157      In  0.57287935  0.32920876  0.81464201     1.36900
C158        C  0.51073675  0.33206500  0.81405782     0.78900
O159        O  0.56744375  0.28344913  0.80276005    -0.59500
O160        O  0.58844822  0.28262225  0.82321031    -0.50500
C161        C  0.61371012  0.35431129  0.79625172     0.71600
O162        O  0.58503797  0.36085552  0.79631100    -0.45300
C163        C  0.58453130  0.36336637  0.83793661     0.76300
O164        O  0.52708465  0.33933876  0.80343460    -0.57200
O165        O  0.58855752  0.33403742  0.83743485    -0.47300
O166        O  0.52608085  0.32378299  0.82480811    -0.53600
C167        C  0.57863479  0.26710332  0.81269892     0.86500
O168        O  0.62134989  0.33400361  0.80537247    -0.55500
O169        O  0.57530434  0.37511936  0.82638619    -0.58800
In170      In  0.57146455  0.17049318  0.81399916     1.36900
C171        C  0.50926600  0.16927543  0.81227223     0.78900
O172        O  0.56784778  0.12619797  0.82693398    -0.59500
O173        O  0.59067266  0.16535922  0.83609024    -0.50500
C174        C  0.61404652  0.14435529  0.79666865     0.71600
O175        O  0.58508317  0.14187223  0.79460171    -0.45300
C176        C  0.57829718  0.23265759  0.81258449     0.76300
O177        O  0.52400579  0.17900614  0.82300035    -0.57200
O178        O  0.58580019  0.21680543  0.82332478    -0.47300
O179        O  0.52625407  0.15911683  0.80236113    -0.53600
C180        C  0.58209348  0.13725737  0.83757938     0.86500
O181        O  0.62093228  0.16112852  0.80724188    -0.55500
O182        O  0.56879127  0.21663324  0.80216739    -0.58800
In183      In  0.41285542  0.17307825  0.81178776     1.36900
C184        C  0.47504289  0.17042325  0.81168500     0.78900
O185        O  0.41869162  0.21953979  0.80038771    -0.59500
O186        O  0.39525648  0.21878358  0.82021680    -0.50500
C187        C  0.37222261  0.14462597  0.79409197     0.71600
O188        O  0.40118022  0.13979760  0.79362691    -0.45300
C189        C  0.40266635  0.14259630  0.83599990     0.76300
O190        O  0.45935417  0.18082099  0.82192072    -0.57200
O191        O  0.39335810  0.17023441  0.83387829    -0.47300
O192        O  0.45901066  0.16154789  0.80112497    -0.53600
C193        C  0.40619701  0.23509367  0.81028118     0.86500
O194        O  0.36447955  0.16483471  0.80318801    -0.55500
O195        O  0.41641278  0.13041836  0.82553692    -0.58800
In196      In  0.41439328  0.33111326  0.81446510     1.36900
C197        C  0.47655993  0.33248099  0.81408246     0.78900
O198        O  0.41304592  0.37494909  0.82772953    -0.59500
O199        O  0.39432879  0.33345648  0.83662267    -0.50500
C200        C  0.37638424  0.35980975  0.79608044     0.71600
O201        O  0.40518579  0.36540767  0.79675347    -0.45300
C202        C  0.40670446  0.26947887  0.81103859     0.76300
O203        O  0.46036626  0.34102433  0.80359418    -0.57200
O204        O  0.39782696  0.28406274  0.82194843    -0.47300
O205        O  0.46105222  0.32376196  0.82470349    -0.53600
C206        C  0.40013552  0.36225650  0.83828126     0.86500
O207        O  0.36734288  0.33889137  0.80459536    -0.55500
O208        O  0.41804787  0.28659448  0.80144042    -0.58800
In209      In  0.42091225  0.82643107  0.19368069     1.36900
C210        C  0.48278762  0.82533626  0.19298521     0.78900
O211        O  0.42354093  0.78005398  0.20507109    -0.59500
O212        O  0.40661052  0.78127522  0.18379524    -0.50500
C213        C  0.38262226  0.85625773  0.21137128     0.71600
O214        O  0.41121078  0.86297510  0.21055740    -0.45300
C215        C  0.40511939  0.85863298  0.17077221     0.76300
O216        O  0.46809044  0.82758749  0.20455166    -0.57200
O217        O  0.39672623  0.83053386  0.17266549    -0.47300
O218        O  0.46597113  0.82488973  0.18203615    -0.53600
C219        C  0.41455142  0.76482647  0.19430199     0.86500
O220        O  0.37464728  0.83279268  0.20405220    -0.55500
O221        O  0.42138741  0.87002172  0.18071493    -0.58800
In222      In  0.57835153  0.81960440  0.18932778     1.36900
C223        C  0.51673400  0.82296260  0.19200723     0.78900
O224        O  0.57516592  0.86303737  0.17626726    -0.59500
O225        O  0.60006560  0.82446611  0.16769979    -0.50500
C226        C  0.61745990  0.84980385  0.20664051     0.71600
O227        O  0.58853219  0.85463767  0.20655064    -0.45300
C228        C  0.58647452  0.75763119  0.19006191     0.76300
O229        O  0.53464993  0.82343857  0.20263019    -0.57200
O230        O  0.58880915  0.77350498  0.17884994    -0.47300
O231        O  0.53023982  0.82007486  0.18022802    -0.53600
C232        C  0.59066580  0.85228944  0.16600177     0.86500
O233        O  0.62614934  0.82858248  0.19819149    -0.55500
O234        O  0.58091195  0.77347815  0.20108387    -0.58800
In235      In  0.58132484  0.66144647  0.18849923     1.36900
C236        C  0.51940207  0.66382734  0.19057370     0.78900
O237        O  0.58246752  0.70680436  0.20082217    -0.59500
O238        O  0.59241552  0.70793521  0.17871328    -0.50500
C239        C  0.62364951  0.63237458  0.20488575     0.71600
O240        O  0.59473215  0.62722194  0.20574895    -0.45300
C241        C  0.58940679  0.62832761  0.16481095     0.76300
O242        O  0.53621389  0.65551788  0.20095509    -0.57200
O243        O  0.60101765  0.65524761  0.16669016    -0.47300
O244        O  0.53417552  0.66989760  0.17939106    -0.53600
C245        C  0.58785791  0.72327494  0.18996909     0.86500
O246        O  0.63062630  0.65357945  0.19611058    -0.55500
O247        O  0.57411805  0.61811804  0.17526839    -0.58800
In248      In  0.42336458  0.66944343  0.18984034     1.36900
C249        C  0.48530044  0.66644636  0.19098872     0.78900
O250        O  0.42990982  0.62822556  0.17561285    -0.59500
O251        O  0.40442852  0.66686146  0.16749690    -0.50500
C252        C  0.38060707  0.63959875  0.20544359     0.71600
O253        O  0.40945241  0.63492122  0.20695732    -0.45300
C254        C  0.41562277  0.73063751  0.19339698     0.76300
O255        O  0.46863491  0.65813095  0.20138270    -0.57200
O256        O  0.40813356  0.71641790  0.18217555    -0.47300
O257        O  0.47035176  0.67704884  0.18051637    -0.53600
C258        C  0.41563556  0.63996169  0.16517418     0.86500
O259        O  0.37407629  0.66019722  0.19635147    -0.55500
O260        O  0.42605421  0.71340170  0.20320257    -0.58800
In261      In  0.08262068  0.82097631  0.93853472     1.36900
C262        C  0.08408935  0.75883550  0.94000589     0.78900
O263        O  0.03694928  0.81777181  0.95043657    -0.59500
O264        O  0.03596637  0.83390255  0.92914783    -0.50500
C265        C  0.11339776  0.85907944  0.95640034     0.71600
O266        O  0.12042944  0.83058284  0.95477544    -0.45300
C267        C  0.11351061  0.83331378  0.91453509     0.76300
O268        O  0.09222968  0.77574021  0.95042085    -0.57200
O269        O  0.09017527  0.84901187  0.91848667    -0.47300
O270        O  0.07502444  0.77372563  0.92920545    -0.53600
C271        C  0.02055876  0.82642705  0.94000671     0.86500
O272        O  0.08971641  0.86743308  0.94943743    -0.55500
O273        O  0.12111316  0.81174071  0.92298831    -0.58800
In274      In  0.92424146  0.81854257  0.93925771     1.36900
C275        C  0.92535190  0.75607412  0.94029248     0.78900
O276        O  0.88362065  0.81094486  0.92454951    -0.59500
O277        O  0.91514374  0.84729857  0.91943903    -0.50500
C278        C  0.89342792  0.85503478  0.95780493     0.71600
O279        O  0.88675316  0.82655659  0.95573821    -0.45300
C280        C  0.98622864  0.82586297  0.94011562     0.76300
O281        O  0.91999099  0.77254149  0.95118762    -0.57200
O282        O  0.97010285  0.83194474  0.92924898    -0.47300
O283        O  0.92983305  0.77150329  0.92907569    -0.53600
C284        C  0.89068999  0.83258477  0.91602342     0.86500
O285        O  0.91700289  0.86413202  0.95099429    -0.55500
O286        O  0.97058801  0.81756718  0.95079567    -0.58800
In287      In  0.93005880  0.65918534  0.93972393     1.36900
C288        C  0.92662510  0.72164931  0.94038493     0.78900
O289        O  0.97615698  0.65904278  0.95131071    -0.59500
O290        O  0.97581947  0.64985252  0.92916170    -0.50500
C291        C  0.90271557  0.62019727  0.95788370     0.71600
O292        O  0.89963929  0.64958344  0.95877465    -0.45300
C293        C  0.89547904  0.64338093  0.91727349     0.76300
O294        O  0.92272865  0.70520114  0.95138030    -0.57200
O295        O  0.92259451  0.63273573  0.91918605    -0.47300
O296        O  0.93200083  0.70620399  0.92924586    -0.53600
C297        C  0.99177966  0.65376463  0.94024617     0.86500
O298        O  0.92132463  0.61120763  0.94839112    -0.55500
O299        O  0.88637683  0.66182535  0.92690726    -0.58800
In300      In  0.08712876  0.66222704  0.93827766     1.36900
C301        C  0.08520057  0.72448293  0.93996469     0.78900
O302        O  0.13076985  0.67088096  0.92550805    -0.59500
O303        O  0.09518779  0.64304218  0.91631692    -0.50500
C304        C  0.11311199  0.62026629  0.95592796     0.71600
O305        O  0.11712103  0.64953003  0.95713879    -0.45300
C306        C  0.02586363  0.65425915  0.93996236     0.76300
O307        O  0.09583697  0.70805110  0.95004043    -0.57200
O308        O  0.04103443  0.64905169  0.92876491    -0.47300
O309        O  0.07573240  0.70910554  0.92938810    -0.53600
C310        C  0.12153346  0.65573467  0.91476484     0.86500
O311        O  0.09552736  0.61263508  0.94574471    -0.55500
O312        O  0.04217456  0.66181117  0.95058398    -0.58800
In313      In  0.74799638  0.03447119  0.75257645     1.36900
C314        C  0.70602855  0.07170501  0.76536630     0.78900
O315        O  0.73680006  0.99324041  0.76632650    -0.59500
O316        O  0.77933827  0.01645572  0.77040553    -0.50500
C317        C  0.73951678  0.99620683  0.73008328     0.71600
O318        O  0.71759357  0.01209222  0.73540602    -0.45300
C319        C  0.78698757  0.07509037  0.74041879     0.76300
O320        O  0.69901684  0.05313600  0.75538755    -0.57200
O321        O  0.79570955  0.05458128  0.74922951    -0.47300
O322        O  0.73450993  0.07116739  0.76867435    -0.53600
C323        C  0.76113259  0.99447500  0.77383751     0.86500
O324        O  0.76522833  0.99996474  0.73635442    -0.55500
O325        O  0.75799771  0.07538625  0.73818680    -0.58800
In326      In  0.73104853  0.88133503  0.65644280     1.36900
C327        C  0.69298642  0.87114159  0.63464534     0.78900
O328        O  0.74242998  0.92597288  0.64542553    -0.59500
O329        O  0.77841239  0.89186659  0.64786817    -0.50500
C330        C  0.72950012  0.91475542  0.68044806     0.71600
O331        O  0.70689704  0.91448409  0.67177588    -0.45300
C332        C  0.73496217  0.82132551  0.66403469     0.76300
O333        O  0.68341667  0.88253501  0.64628918    -0.57200
O334        O  0.75734864  0.83602312  0.65841065    -0.47300
O335        O  0.72178960  0.86552752  0.63434270    -0.53600
C336        C  0.77038858  0.91844129  0.64310273     0.86500
O337        O  0.75156922  0.89671287  0.67704157    -0.55500
O338        O  0.71128606  0.83805480  0.66652405    -0.58800
In339      In  0.71778965  0.62614637  0.66082889     1.36900
C340        C  0.67666387  0.63830470  0.64030110     0.78900
O341        O  0.70222148  0.67252920  0.66996537    -0.59500
O342        O  0.74886021  0.66801816  0.66282701    -0.50500
C343        C  0.71443446  0.59304613  0.68495603     0.71600
O344        O  0.69283705  0.59293737  0.67581714    -0.45300
C345        C  0.75631340  0.59052914  0.64559447     0.76300
O346        O  0.66843947  0.62510092  0.65173375    -0.57200
O347        O  0.76396878  0.61710808  0.65038634    -0.47300
O348        O  0.70523262  0.64463643  0.63964744    -0.53600
C349        C  0.72786494  0.68604940  0.66743892     0.86500
O350        O  0.73664004  0.61132838  0.68204751    -0.55500
O351        O  0.72939943  0.58169961  0.64915379    -0.58800
In352      In  0.74657727  0.46389972  0.75147151     1.36900
C353        C  0.70464073  0.42507438  0.76357254     0.78900
O354        O  0.76115100  0.43090315  0.73418447    -0.59500
O355        O  0.79597488  0.44572747  0.74859837    -0.50500
C356        C  0.73311262  0.50433262  0.73065561     0.71600
O357        O  0.71617172  0.48081861  0.73336689    -0.45300
C358        C  0.75886324  0.50357042  0.77286406     0.76300
O359        O  0.69737100  0.44860737  0.75618973    -0.57200
O360        O  0.77620616  0.48056810  0.76985121    -0.47300
O361        O  0.73364087  0.42094455  0.76457011    -0.53600
C362        C  0.78950456  0.42974304  0.73768253     0.86500
O363        O  0.75724905  0.50628493  0.73828171    -0.55500
O364        O  0.73503916  0.50570013  0.76509746    -0.58800
In365      In  0.77585111  0.87379637  0.84519403     1.36900
C366        C  0.81452152  0.86149272  0.86662897     0.78900
O367        O  0.76337608  0.91647738  0.85733106    -0.59500
O368        O  0.72840514  0.88157777  0.85491983    -0.50500
C369        C  0.77707691  0.90908474  0.82164635     0.71600
O370        O  0.79939358  0.90910281  0.83046322    -0.45300
C371        C  0.77351883  0.81443203  0.83668499     0.76300
O372        O  0.82325484  0.87690447  0.85582717    -0.57200
O373        O  0.74989184  0.82888777  0.84131889    -0.47300
O374        O  0.78639867  0.85303516  0.86629152    -0.53600
C375        C  0.73596990  0.90789184  0.86014370     0.86500
O376        O  0.75560880  0.89002092  0.82469540    -0.55500
O377        O  0.79744313  0.83142136  0.83518602    -0.58800
In378      In  0.78128053  0.61867504  0.84491642     1.36900
C379        C  0.81968760  0.62289657  0.86706928     0.78900
O380        O  0.80288127  0.66311315  0.83656451    -0.59500
O381        O  0.75530660  0.66359912  0.84268825    -0.50500
C382        C  0.78021175  0.58769975  0.82033996     0.71600
O383        O  0.80273856  0.58556553  0.82898486    -0.45300
C384        C  0.73956700  0.58497218  0.85868323     0.76300
O385        O  0.82895936  0.61196650  0.85527779    -0.57200
O386        O  0.73454383  0.61302018  0.85498951    -0.47300
O387        O  0.79170198  0.63160667  0.86705246    -0.53600
C388        C  0.77830037  0.67909865  0.83818472     0.86500
O389        O  0.75948573  0.60702732  0.82399207    -0.55500
O390        O  0.76532171  0.57390387  0.85462609    -0.58800
In391      In  0.23803860  0.03514323  0.75047633     1.36900
C392        C  0.28021692  0.07260162  0.76257133     0.78900
O393        O  0.22422531  0.07592410  0.73692640    -0.59500
O394        O  0.18829712  0.04992671  0.74670999    -0.50500
C395        C  0.25224679  0.99459183  0.72987460     0.71600
O396        O  0.26767436  0.01921473  0.73221406    -0.45300
C397        C  0.22885024  0.99771519  0.77246113     0.76300
O398        O  0.28658985  0.05427093  0.75246219    -0.57200
O399        O  0.20710418  0.01434536  0.76745250    -0.47300
O400        O  0.25195128  0.07214483  0.76628424    -0.53600
C401        C  0.19538005  0.07266627  0.73880974     0.86500
O402        O  0.22905807  0.99124804  0.73788692    -0.55500
O403        O  0.25460565  0.00082923  0.76623878    -0.58800
In404      In  0.22030311  0.87570216  0.84238245     1.36900
C405        C  0.25359055  0.91141012  0.85959315     0.78900
O406        O  0.24367072  0.90241408  0.82563713    -0.59500
O407        O  0.19416057  0.90185407  0.82516303    -0.50500
C408        C  0.23310693  0.82009734  0.83163575     0.71600
O409        O  0.25291555  0.83630726  0.83835531    -0.45300
C410        C  0.18187855  0.85836706  0.86282454     0.76300
O411        O  0.26439967  0.88680853  0.85391826    -0.57200
O412        O  0.17370337  0.87803615  0.85342517    -0.47300
O413        O  0.22592030  0.91791309  0.85610316    -0.53600
C414        C  0.21916040  0.91167259  0.81958197     0.86500
O415        O  0.20730451  0.83363472  0.82951539    -0.55500
O416        O  0.20853744  0.84676713  0.86099687    -0.58800
In417      In  0.23583463  0.62915101  0.84277901     1.36900
C418        C  0.19626330  0.64167568  0.86382681     0.78900
O419        O  0.24410959  0.58532689  0.85458590    -0.59500
O420        O  0.28081310  0.61893038  0.85422692    -0.50500
C421        C  0.23621639  0.59491547  0.81893373     0.71600
O422        O  0.21210995  0.59803041  0.82654006    -0.45300
C423        C  0.24067766  0.68702328  0.83310199     0.76300
O424        O  0.18845807  0.62555795  0.85304894    -0.57200
O425        O  0.26338019  0.67263126  0.83869424    -0.47300
O426        O  0.22380352  0.65198568  0.86345671    -0.53600
C427        C  0.27113031  0.59264980  0.85870066     0.86500
O428        O  0.25954266  0.61004675  0.82343212    -0.55500
O429        O  0.21609062  0.67091860  0.83183501    -0.58800
In430      In  0.25069764  0.47081846  0.74859815     1.36900
C431        C  0.29076171  0.43266470  0.76167071     0.78900
O432        O  0.26813584  0.50952949  0.76257504    -0.59500
O433        O  0.22248614  0.49276728  0.76633939    -0.50500
C434        C  0.26093221  0.51162311  0.72762105     0.71600
O435        O  0.28061020  0.49092689  0.73108243    -0.45300
C436        C  0.20935367  0.43128238  0.73669853     0.76300
O437        O  0.29846958  0.44946102  0.75120366    -0.57200
O438        O  0.20191813  0.45188393  0.74573249    -0.47300
O439        O  0.26246684  0.43498188  0.76509797    -0.53600
C440        C  0.24376816  0.51175397  0.76994167     0.86500
O441        O  0.23594115  0.51043756  0.73460698    -0.55500
O442        O  0.23802910  0.43096884  0.73379599    -0.58800
In443      In  0.27786920  0.88030963  0.65826728     1.36900
C444        C  0.31846495  0.87060044  0.63744945     0.78900
O445        O  0.29312627  0.83613367  0.66941993    -0.59500
O446        O  0.24861254  0.83750329  0.65953245    -0.50500
C447        C  0.27587988  0.91214483  0.68241437     0.71600
O448        O  0.29961221  0.91290725  0.67445313    -0.45300
C449        C  0.23939414  0.91688744  0.64406216     0.76300
O450        O  0.32709053  0.88250952  0.64916116    -0.57200
O451        O  0.23224420  0.88924294  0.64761061    -0.47300
O452        O  0.28997859  0.86381764  0.63682953    -0.53600
C453        C  0.26841995  0.82144334  0.66625500     0.86500
O454        O  0.25443976  0.89425189  0.67814521    -0.55500
O455        O  0.26608789  0.92577770  0.64802058    -0.58800
In456      In  0.27177893  0.62916140  0.65589545     1.36900
C457        C  0.31119917  0.64404538  0.63524565     0.78900
O458        O  0.26236931  0.58551069  0.64325457    -0.59500
O459        O  0.22545950  0.61810622  0.64573664    -0.50500
C460        C  0.27379094  0.59639966  0.67995713     0.71600
O461        O  0.29713559  0.59830299  0.67180352    -0.45300
C462        C  0.26440628  0.68739241  0.66534224     0.76300
O463        O  0.31951830  0.62742296  0.64575240    -0.57200
O464        O  0.24319512  0.67234004  0.65894865    -0.47300
O465        O  0.28327034  0.65302130  0.63568065    -0.53600
C466        C  0.23453602  0.59254382  0.64030590     0.86500
O467        O  0.25031711  0.61157822  0.67574713    -0.55500
O468        O  0.28895249  0.67178780  0.66760918    -0.58800
In469      In  0.57627611  0.67151373  0.56471321     1.36900
C470        C  0.57690434  0.73391003  0.56363151     0.78900
O471        O  0.53257486  0.67785057  0.55198134    -0.59500
O472        O  0.52997232  0.65477474  0.57204109    -0.50500
C473        C  0.60539814  0.63315826  0.54657952     0.71600
O474        O  0.61459421  0.66057210  0.54935762    -0.45300
C475        C  0.60461362  0.66038473  0.58942744     0.76300
O476        O  0.58622920  0.71723974  0.55339819    -0.57200
O477        O  0.57774890  0.64995001  0.58671022    -0.47300
O478        O  0.56725431  0.71873360  0.57420259    -0.53600
C479        C  0.51563122  0.66599569  0.56150404     0.86500
O480        O  0.58096516  0.62534601  0.55307720    -0.55500
O481        O  0.61691964  0.67518358  0.57931817    -0.58800
In482      In  0.57756946  0.83068252  0.56399524     1.36900
C483        C  0.57721379  0.76827013  0.56350734     0.78900
O484        O  0.62353537  0.83037625  0.57527107    -0.59500
O485        O  0.58426534  0.84738547  0.58644591    -0.50500
C486        C  0.60579098  0.86995615  0.54638881     0.71600
O487        O  0.60662476  0.84053617  0.54480911    -0.45300
C488        C  0.51711064  0.84218969  0.56127647     0.76300
O489        O  0.58740708  0.78427343  0.55326158    -0.57200
O490        O  0.53247891  0.84960147  0.57218922    -0.47300
O491        O  0.56730872  0.78411208  0.57385186    -0.53600
C492        C  0.61320420  0.84219770  0.58659954     0.86500
O493        O  0.58903683  0.87910282  0.55656185    -0.55500
O494        O  0.53293997  0.83045060  0.55133986    -0.58800
In495      In  0.42172233  0.83870351  0.56239662     1.36900
C496        C  0.42157145  0.77577726  0.56145065     0.78900
O497        O  0.46704624  0.83475558  0.55047748    -0.59500
O498        O  0.46766465  0.85333599  0.57144389    -0.50500
C499        C  0.39170852  0.87862015  0.54494300     0.71600
O500        O  0.38538787  0.84971543  0.54551868    -0.45300
C501        C  0.39085312  0.85094940  0.58637011     0.76300
O502        O  0.41568057  0.79232099  0.55064035    -0.57200
O503        O  0.41746982  0.86227215  0.58391939    -0.47300
O504        O  0.42722502  0.79133253  0.57254942    -0.53600
C505        C  0.48312568  0.84429836  0.56085479     0.86500
O506        O  0.41444287  0.88649556  0.55265581    -0.55500
O507        O  0.38027967  0.83404900  0.57645393    -0.58800
In508      In  0.42116391  0.67825640  0.56247975     1.36900
C509        C  0.42172019  0.74115967  0.56143417     0.78900
O510        O  0.37663095  0.68210266  0.57477739    -0.59500
O511        O  0.41523270  0.66004947  0.58463388    -0.50500
C512        C  0.39464117  0.63628575  0.54497421     0.71600
O513        O  0.39070894  0.66553595  0.54369843    -0.45300
C514        C  0.48177212  0.66787931  0.56114733     0.76300
O515        O  0.41410989  0.72455693  0.55084933    -0.57200
O516        O  0.46554598  0.66044926  0.57173119    -0.47300
O517        O  0.42925807  0.72566705  0.57229613    -0.53600
C518        C  0.38723602  0.66862864  0.58570406     0.86500
O519        O  0.41272867  0.62886655  0.55495569    -0.55500
O520        O  0.46683415  0.67933588  0.55083715    -0.58800
In521      In  0.71564153  0.51020763  0.49776173     1.36900
C522        C  0.68368147  0.46539979  0.48419138     0.78900
O523        O  0.67290807  0.52030100  0.51070208    -0.59500
O524        O  0.69848034  0.55884114  0.50271379    -0.50500
C525        C  0.75162807  0.50048339  0.52043382     0.71600
O526        O  0.73064801  0.48136023  0.51668685    -0.45300
C527        C  0.75606227  0.52498751  0.47732775     0.76300
O528        O  0.70356331  0.45930455  0.49369408    -0.57200
O529        O  0.73121169  0.54032445  0.47920863    -0.47300
O530        O  0.68034688  0.49435269  0.48178105    -0.53600
C531        C  0.67597467  0.54971015  0.51023825     0.86500
O532        O  0.75370023  0.52440848  0.51263244    -0.55500
O533        O  0.75948788  0.50223984  0.48574073    -0.58800
In534      In  0.87596758  0.53528517  0.40740492     1.36900
C535        C  0.88734302  0.57109280  0.38491931     0.78900
O536        O  0.91807670  0.55674448  0.41748291    -0.59500
O537        O  0.91798917  0.50758420  0.41351989    -0.50500
C538        C  0.84184046  0.54026578  0.43072848     0.71600
O539        O  0.84212368  0.56176783  0.42145255    -0.45300
C540        C  0.84203693  0.49322421  0.39354505     0.76300
O541        O  0.87347110  0.58182036  0.39575143    -0.57200
O542        O  0.86959630  0.48753990  0.39753678    -0.47300
O543        O  0.89564681  0.54284465  0.38601946    -0.53600
C544        C  0.93296246  0.53116928  0.41798473     0.86500
O545        O  0.85949588  0.51738129  0.42804601    -0.55500
O546        O  0.83199262  0.51989308  0.39715487    -0.58800
In547      In  0.12363108  0.53097840  0.41190306     1.36900
C548        C  0.11617425  0.56855927  0.38958524     0.78900
O549        O  0.16933868  0.51722260  0.40339347    -0.59500
O550        O  0.13285661  0.48347740  0.40225429    -0.50500
C551        C  0.15515631  0.53342209  0.43591653     0.71600
O552        O  0.15622644  0.55545419  0.42691740    -0.45300
C553        C  0.06524599  0.52809421  0.42042950     0.76300
O554        O  0.12694121  0.57868311  0.40126517    -0.57200
O555        O  0.07955901  0.50441701  0.41562549    -0.47300
O556        O  0.10913965  0.53981785  0.38969031    -0.53600
C557        C  0.16087187  0.49025478  0.39940951     0.86500
O558        O  0.13651101  0.51151486  0.43286192    -0.55500
O559        O  0.08148044  0.55276446  0.42134550    -0.58800
In560      In  0.28235064  0.50239049  0.50231118     1.36900
C561        C  0.32153359  0.54398484  0.51418168     0.78900
O562        O  0.24364102  0.51634888  0.51697452    -0.59500
O563        O  0.25722454  0.46852191  0.51670329    -0.50500
C564        C  0.24224669  0.51515013  0.48171577     0.71600
O565        O  0.26237183  0.53483887  0.48584112    -0.45300
C566        C  0.32066507  0.46225324  0.48919558     0.76300
O567        O  0.30272468  0.55095285  0.50439251    -0.57200
O568        O  0.31062925  0.45737086  0.50158842    -0.47300
O569        O  0.32008040  0.51562094  0.51797629    -0.53600
C570        C  0.23859555  0.48891524  0.52142501     0.86500
O571        O  0.24348879  0.48889166  0.48788158    -0.55500
O572        O  0.31107584  0.48750486  0.48378040    -0.58800
In573      In  0.86926602  0.48048651  0.59167936     1.36900
C574        C  0.88473669  0.44043436  0.61207694     0.78900
O575        O  0.91024836  0.46081725  0.57998969    -0.59500
O576        O  0.91217120  0.50816781  0.58721831    -0.50500
C577        C  0.83398777  0.48255673  0.56854920     0.71600
O578        O  0.83534059  0.45821603  0.57626035    -0.45300
C579        C  0.83410554  0.51661300  0.60810275     0.76300
O580        O  0.86819273  0.43200973  0.60154445    -0.57200
O581        O  0.85973037  0.52606968  0.60303076    -0.47300
O582        O  0.89331923  0.46874919  0.61176137    -0.53600
C583        C  0.92637959  0.48548666  0.58144013     0.86500
O584        O  0.85137904  0.50477201  0.57253639    -0.55500
O585        O  0.82668778  0.48904575  0.60450585    -0.58800
In586      In  0.11859508  0.47564518  0.58997323     1.36900
C587        C  0.10830414  0.43666490  0.61137422     0.78900
O588        O  0.16359879  0.48634842  0.60110576    -0.59500
O589        O  0.13022514  0.52278826  0.59953717    -0.50500
C590        C  0.14775470  0.47178237  0.56525406     0.71600
O591        O  0.14631924  0.44881493  0.57373469    -0.45300
C592        C  0.05964391  0.48185714  0.58201372     0.76300
O593        O  0.12437868  0.42847431  0.60073109    -0.57200
O594        O  0.07551995  0.50427268  0.58707192    -0.47300
O595        O  0.09756055  0.46415703  0.61068394    -0.53600
C596        C  0.15650598  0.51425522  0.60422136     0.86500
O597        O  0.13315660  0.49587910  0.56926961    -0.55500
O598        O  0.07456337  0.45648840  0.58053617    -0.58800
In599      In  0.91805413  0.82897646  0.31141917     1.36900
C600        C  0.98000573  0.83172374  0.31139122     0.78900
O601        O  0.92186006  0.87141896  0.32523242    -0.59500
O602        O  0.89344809  0.83393075  0.33241093    -0.50500
C603        C  0.87674700  0.85641214  0.29439797     0.71600
O604        O  0.90550053  0.86264285  0.29398259    -0.45300
C605        C  0.91430156  0.76718070  0.30866317     0.76300
O606        O  0.96414456  0.83919917  0.30057597    -0.57200
O607        O  0.90833326  0.78146608  0.32005898    -0.47300
O608        O  0.96421939  0.82324528  0.32196568    -0.53600
C609        C  0.90477012  0.86071488  0.33497495     0.86500
O610        O  0.86965803  0.83498176  0.30301013    -0.55500
O611        O  0.92063170  0.78462109  0.29823740    -0.58800
In612      In  0.07610432  0.83225903  0.31391933     1.36900
C613        C  0.01416599  0.83244530  0.31196373     0.78900
O614        O  0.07054790  0.78577815  0.30307443    -0.59500
O615        O  0.09833269  0.78785266  0.32178083    -0.50500
C616        C  0.11738491  0.86043590  0.29692976     0.71600
O617        O  0.08842059  0.86495815  0.29590283    -0.45300
C618        C  0.08392771  0.86505715  0.33764807     0.76300
O619        O  0.03126727  0.83884057  0.30145826    -0.57200
O620        O  0.08836520  0.83581233  0.33706059    -0.47300
O621        O  0.02870363  0.82626371  0.32325381    -0.53600
C622        C  0.08617704  0.77104897  0.31224831     0.86500
O623        O  0.12486185  0.84049087  0.30619022    -0.55500
O624        O  0.07530498  0.87728897  0.32609664    -0.58800
In625      In  0.92459635  0.67121113  0.30954519     1.36900
C626        C  0.98649708  0.67142803  0.31100843     0.78900
O627        O  0.92409488  0.71730264  0.29741297    -0.59500
O628        O  0.91066411  0.71678931  0.31910312    -0.50500
C629        C  0.88765691  0.63915960  0.29156682     0.71600
O630        O  0.91688882  0.63590841  0.29164966    -0.45300
C631        C  0.91078993  0.63980758  0.33302095     0.76300
O632        O  0.97222878  0.66473775  0.29963455    -0.57200
O633        O  0.89812088  0.66562773  0.32992614    -0.47300
O634        O  0.96922471  0.67829155  0.32131081    -0.53600
C635        C  0.91581359  0.73288470  0.30818530     0.86500
O636        O  0.87808824  0.66001965  0.29998774    -0.55500
O637        O  0.92976255  0.62984055  0.32385411    -0.58800
In638      In  0.08222634  0.67502551  0.31486277     1.36900
C639        C  0.02049071  0.67160833  0.31238576     0.78900
O640        O  0.08663263  0.63014338  0.32715968    -0.59500
O641        O  0.09681810  0.67231820  0.33803471    -0.50500
C642        C  0.12083308  0.64993241  0.29580887     0.71600
O643        O  0.09219305  0.64368752  0.29631068    -0.45300
C644        C  0.08761881  0.73682766  0.31249446     0.76300
O645        O  0.03850957  0.66492535  0.30230121    -0.57200
O646        O  0.10101153  0.72167675  0.32223892    -0.47300
O647        O  0.03398129  0.67896802  0.32382642    -0.53600
C648        C  0.09500173  0.64279279  0.33867385     0.86500
O649        O  0.12973573  0.66947709  0.30505053    -0.55500
O650        O  0.07335078  0.72027495  0.30353044    -0.58800
In651      In  0.91112300  0.17517013  0.68753836     1.36900
C652        C  0.97280312  0.17427600  0.68949235     0.78900
O653        O  0.91621280  0.13295271  0.67380203    -0.59500
O654        O  0.88842243  0.17032190  0.66599492    -0.50500
C655        C  0.87234204  0.14723945  0.70584133     0.71600
O656        O  0.90009858  0.13861393  0.70396341    -0.45300
C657        C  0.90770772  0.23724886  0.68799627     0.76300
O658        O  0.95577177  0.17095517  0.70029074    -0.57200
O659        O  0.90031757  0.22122810  0.67724283    -0.47300
O660        O  0.95833762  0.17739505  0.67795978    -0.53600
C661        C  0.90051079  0.14381753  0.66359277     0.86500
O662        O  0.86447378  0.17054347  0.69839274    -0.55500
O663        O  0.91454988  0.22148717  0.69889085    -0.58800
In664      In  0.06841591  0.17586967  0.68953101     1.36900
C665        C  0.00679772  0.17484856  0.68993760     0.78900
O666        O  0.06531724  0.22310099  0.70008872    -0.59500
O667        O  0.08353010  0.22027872  0.67913091    -0.50500
C668        C  0.10589756  0.14818551  0.70831498     0.71600
O669        O  0.07798997  0.13984817  0.70652346    -0.45300
C670        C  0.08327406  0.14364870  0.66638209     0.76300
O671        O  0.02261651  0.17155516  0.70116678    -0.57200
O672        O  0.09627966  0.16915977  0.66971417    -0.47300
O673        O  0.02246064  0.17888117  0.67880227    -0.53600
C674        C  0.07624266  0.23742227  0.68949014     0.86500
O675        O  0.11382462  0.17150055  0.70098128    -0.55500
O676        O  0.06312648  0.13427972  0.67513645    -0.58800
In677      In  0.91992099  0.33328426  0.68587795     1.36900
C678        C  0.98207494  0.33617380  0.68681740     0.78900
O679        O  0.91640223  0.28798313  0.69825365    -0.59500
O680        O  0.90836450  0.28654436  0.67607673    -0.50500
C681        C  0.87987376  0.36179759  0.70343893     0.71600
O682        O  0.90876373  0.36072138  0.70590413    -0.45300
C683        C  0.90830893  0.36626873  0.66251261     0.76300
O684        O  0.96555043  0.34158214  0.69759881    -0.57200
O685        O  0.89855232  0.33856490  0.66424133    -0.47300
O686        O  0.96691929  0.32954950  0.67576994    -0.53600
C687        C  0.91031230  0.27147010  0.68750643     0.86500
O688        O  0.87187678  0.34780199  0.69221546    -0.55500
O689        O  0.92326981  0.37722500  0.67298632    -0.58800
In690      In  0.07811963  0.33322031  0.68652583     1.36900
C691        C  0.01623112  0.33655216  0.68690409     0.78900
O692        O  0.07547008  0.37634454  0.67319838    -0.59500
O693        O  0.10083938  0.33762916  0.66503650    -0.50500
C694        C  0.11924737  0.35781316  0.70487933     0.71600
O695        O  0.09078433  0.36516296  0.70462511    -0.45300
C696        C  0.07899119  0.27148519  0.68888438     0.76300
O697        O  0.03249364  0.34353537  0.69765839    -0.57200
O698        O  0.08864609  0.28549557  0.67796469    -0.47300
O699        O  0.03161119  0.32900973  0.67605716    -0.53600
C700        C  0.09065008  0.36504983  0.66293330     0.86500
O701        O  0.12654585  0.33713092  0.69588774    -0.55500
O702        O  0.07063501  0.28905312  0.69894460    -0.58800
In703      In  0.71823819  0.99519196  0.49954261     1.36900
C704        C  0.68218076  0.03815687  0.48681083     0.78900
O705        O  0.75617578  0.00795402  0.48486022    -0.59500
O706        O  0.73577874  0.96292675  0.48217627    -0.50500
C707        C  0.75935263  0.00626802  0.52038786     0.71600
O708        O  0.73701601  0.02447372  0.51754483    -0.45300
C709        C  0.68087794  0.95538001  0.51312250     0.76300
O710        O  0.70220249  0.04504849  0.49613060    -0.57200
O711        O  0.69950829  0.94657651  0.50358083    -0.47300
O712        O  0.68024708  0.00912026  0.48422135    -0.53600
C713        C  0.75640938  0.98220855  0.47824012     0.86500
O714        O  0.76044442  0.98226453  0.51256237    -0.55500
O715        O  0.68089155  0.98457941  0.51529429    -0.58800
In716      In  0.87957232  0.03278616  0.59048464     1.36900
C717        C  0.88939802  0.07395499  0.61108810     0.78900
O718        O  0.83801838  0.02398248  0.60398665    -0.59500
O719        O  0.87127292  0.98734327  0.60160737    -0.50500
C720        C  0.84535897  0.02801535  0.56701940     0.71600
O721        O  0.84834819  0.05377556  0.57363977    -0.45300
C722        C  0.93805422  0.02740247  0.58191604     0.76300
O723        O  0.87237807  0.08078056  0.60048986    -0.57200
O724        O  0.92351307  0.00547575  0.58803242    -0.47300
O725        O  0.90207107  0.04732519  0.61040596    -0.53600
C726        C  0.84627553  0.99654459  0.60732749     0.86500
O727        O  0.86087361  0.00563294  0.57217351    -0.55500
O728        O  0.92179180  0.05155404  0.57938879    -0.58800
In729      In  0.12827401  0.03612879  0.59431255     1.36900
C730        C  0.11351739  0.07335724  0.61581813     0.78900
O731        O  0.08609553  0.05528390  0.58331895    -0.59500
O732        O  0.08648985  0.00707090  0.58915625    -0.50500
C733        C  0.16260545  0.04044266  0.57087767     0.71600
O734        O  0.15892415  0.06379153  0.57903957    -0.45300
C735        C  0.16190926  0.99708403  0.60978056     0.76300
O736        O  0.13276463  0.08176822  0.60637223    -0.57200
O737        O  0.13696273  0.98855241  0.60376667    -0.47300
O738        O  0.10184789  0.04651372  0.61395260    -0.53600
C739        C  0.07121418  0.02968082  0.58395598     0.86500
O740        O  0.14886963  0.01583273  0.57485270    -0.55500
O741        O  0.16967533  0.02516011  0.60745779    -0.58800
In742      In  0.28125786  0.01280731  0.50046264     1.36900
C743        C  0.31700008  0.96976627  0.51368621     0.78900
O744        O  0.31972291  0.02323662  0.48495853    -0.59500
O745        O  0.30090816  0.06127856  0.49652833    -0.50500
C746        C  0.24376306  0.00281590  0.47813010     0.71600
O747        O  0.26118561  0.98163516  0.48315891    -0.45300
C748        C  0.24189020  0.02726062  0.52161788     0.76300
O749        O  0.29684041  0.96259555  0.50445932    -0.57200
O750        O  0.26545535  0.04379975  0.51876829    -0.47300
O751        O  0.31908394  0.99891813  0.51588026    -0.53600
C752        C  0.31986299  0.05249011  0.48710362     0.86500
O753        O  0.24533961  0.02853955  0.48475270    -0.55500
O754        O  0.23860956  0.00382730  0.51355431    -0.58800
In755      In  0.87842691  0.96705291  0.40943878     1.36900
C756        C  0.88856021  0.92792210  0.38791886     0.78900
O757        O  0.83561985  0.97734905  0.39705732    -0.59500
O758        O  0.86900525  0.01372244  0.39961703    -0.50500
C759        C  0.84505637  0.96468809  0.43306329     0.71600
O760        O  0.85124291  0.94006146  0.42608536    -0.45300
C761        C  0.93629280  0.97844760  0.41781828     0.76300
O762        O  0.87059801  0.92053117  0.39802331    -0.57200
O763        O  0.91948014  0.99863908  0.41172050    -0.47300
O764        O  0.90202954  0.95393045  0.38951359    -0.53600
C765        C  0.84352972  0.00510964  0.39415940     0.86500
O766        O  0.85705502  0.98941238  0.42819813    -0.55500
O767        O  0.92264393  0.95270986  0.42038912    -0.58800
In768      In  0.12616637  0.98515476  0.40606578     1.36900
C769        C  0.11105547  0.94401733  0.38603440     0.78900
O770        O  0.08637794  0.96550307  0.41840330    -0.59500
O771        O  0.08227157  0.01181374  0.41017668    -0.50500
C772        C  0.16272982  0.98769772  0.42894004     0.71600
O773        O  0.15935521  0.96261922  0.42183726    -0.45300
C774        C  0.15940827  0.02214426  0.38938481     0.76300
O775        O  0.12932345  0.93687462  0.39613663    -0.57200
O776        O  0.13398561  0.03103017  0.39484285    -0.47300
O777        O  0.10091347  0.97176146  0.38648933    -0.53600
C778        C  0.06914176  0.98917613  0.41646302     0.86500
O779        O  0.14670806  0.01044611  0.42444275    -0.55500
O780        O  0.16736906  0.99451867  0.39259085    -0.58800
In781      In  0.74372654  0.96584668  0.25103350     1.36900
C782        C  0.78414631  0.92876501  0.26410985     0.78900
O783        O  0.76073879  0.00385032  0.26517066    -0.59500
O784        O  0.71305401  0.99159909  0.26670780    -0.50500
C785        C  0.75654170  0.00303398  0.22914679     0.71600
O786        O  0.77612905  0.98399184  0.23417359    -0.45300
C787        C  0.70372381  0.92595962  0.23911613     0.76300
O788        O  0.79120870  0.94616455  0.25380486    -0.57200
O789        O  0.69593434  0.94436503  0.24901171    -0.47300
O790        O  0.75577366  0.92971538  0.26760100    -0.53600
C791        C  0.73494993  0.00899023  0.27104797     0.86500
O792        O  0.73042900  0.00247276  0.23525533    -0.55500
O793        O  0.73204115  0.92764217  0.23570752    -0.58800
In794      In  0.73283161  0.12311693  0.34343805     1.36900
C795        C  0.69206424  0.13551854  0.36380802     0.78900
O796        O  0.74196156  0.07744681  0.35423518    -0.59500
O797        O  0.77782240  0.11180515  0.35417970    -0.50500
C798        C  0.72957884  0.09262348  0.31904914     0.71600
O799        O  0.70591977  0.09694006  0.32677905    -0.45300
C800        C  0.74342356  0.18132468  0.33504172     0.76300
O801        O  0.68473619  0.11905626  0.35311719    -0.57200
O802        O  0.76348736  0.16514870  0.34157413    -0.47300
O803        O  0.71969424  0.14539329  0.36373429    -0.53600
C804        C  0.76907649  0.08493540  0.35816986     0.86500
O805        O  0.75444727  0.10444868  0.32381731    -0.55500
O806        O  0.71850563  0.16689438  0.33211663    -0.58800
In807      In  0.73232301  0.37337554  0.34239915     1.36900
C808        C  0.69393611  0.35871478  0.36340502     0.78900
O809        O  0.71661611  0.32845556  0.33230377    -0.59500
O810        O  0.76387207  0.33263017  0.33899971    -0.50500
C811        C  0.72636760  0.40520922  0.31837099     0.71600
O812        O  0.70540450  0.40569712  0.32777599    -0.45300
C813        C  0.76898079  0.41145761  0.35729366     0.76300
O814        O  0.68425702  0.37123965  0.35203089    -0.57200
O815        O  0.77815615  0.38509575  0.35278677    -0.47300
O816        O  0.72278076  0.35348035  0.36366131    -0.53600
C817        C  0.74271748  0.31521215  0.33395655     0.86500
O818        O  0.74947930  0.38810501  0.32128120    -0.55500
O819        O  0.74171666  0.41864090  0.35348771    -0.58800
In820      In  0.75855134  0.52131226  0.24812638     1.36900
C821        C  0.80071086  0.55827879  0.26109039     0.78900
O822        O  0.74511512  0.55946640  0.23262125    -0.59500
O823        O  0.70910234  0.53617035  0.24357581    -0.50500
C824        C  0.77166213  0.47956733  0.22769367     0.71600
O825        O  0.78567848  0.50553504  0.22873792    -0.45300
C826        C  0.74290392  0.48528262  0.27000227     0.76300
O827        O  0.80831727  0.53713344  0.25237260    -0.57200
O828        O  0.72536153  0.50700349  0.26558134    -0.47300
O829        O  0.77174193  0.56030787  0.26300458    -0.53600
C830        C  0.71619982  0.55694093  0.23463187     0.86500
O831        O  0.75131256  0.47530393  0.23709164    -0.55500
O832        O  0.76845305  0.48288862  0.26347802    -0.58800
In833      In  0.77880844  0.11473438  0.15613302     1.36900
C834        C  0.81786352  0.12746341  0.13516333     0.78900
O835        O  0.76849605  0.07170933  0.14377944    -0.59500
O836        O  0.73233502  0.10534425  0.14651119    -0.50500
C837        C  0.77759039  0.08258662  0.18027080     0.71600
O838        O  0.80135738  0.08221083  0.17231624    -0.45300
C839        C  0.77229575  0.17350505  0.16411204     0.76300
O840        O  0.82681082  0.11282257  0.14617517    -0.57200
O841        O  0.75051715  0.15811753  0.15834642    -0.47300
O842        O  0.78955790  0.13516831  0.13523641    -0.53600
C843        C  0.74084679  0.07972915  0.14098535     0.86500
O844        O  0.75593354  0.10006297  0.17593350    -0.55500
O845        O  0.79677272  0.15789053  0.16657784    -0.58800
In846      In  0.77870080  0.36683539  0.15507487     1.36900
C847        C  0.73945599  0.40526836  0.14212339     0.78900
O848        O  0.76192876  0.37869234  0.17659427    -0.59500
O849        O  0.80585337  0.39722356  0.17047836    -0.50500
C850        C  0.77293260  0.30777747  0.16305259     0.71600
O851        O  0.74993422  0.32405569  0.15901416    -0.45300
C852        C  0.81332950  0.35507753  0.13244386     0.76300
O853        O  0.73191922  0.37786285  0.14594742    -0.57200
O854        O  0.82465955  0.36781338  0.14349025    -0.47300
O855        O  0.76662155  0.41356126  0.14567669    -0.53600
C856        C  0.78485952  0.39575114  0.17988665     0.86500
O857        O  0.79853263  0.32241690  0.16352957    -0.55500
O858        O  0.78477918  0.34858560  0.13326626    -0.58800
In859      In  0.21567123  0.11995600  0.15874667     1.36900
C860        C  0.25483425  0.08256907  0.14503533     0.78900
O861        O  0.23715795  0.10773006  0.17930184    -0.59500
O862        O  0.19245273  0.08844567  0.17464009    -0.50500
C863        C  0.21714709  0.17902999  0.16739874     0.71600
O864        O  0.24085547  0.16496215  0.16258053    -0.45300
C865        C  0.17867577  0.12914922  0.13675114     0.76300
O866        O  0.26253001  0.10976455  0.14921689    -0.57200
O867        O  0.16932494  0.11441849  0.14764279    -0.47300
O868        O  0.22744952  0.07460786  0.14827192    -0.53600
C869        C  0.21529316  0.08993498  0.18316408     0.86500
O870        O  0.19289031  0.16226550  0.16816822    -0.55500
O871        O  0.20626300  0.13919777  0.13755520    -0.58800
In872      In  0.20983447  0.37115959  0.15869515     1.36900
C873        C  0.17267998  0.36039986  0.13676650     0.78900
O874        O  0.22452015  0.41509309  0.14798688    -0.59500
O875        O  0.25708458  0.37765512  0.14878832    -0.50500
C876        C  0.20957661  0.40555466  0.18206117     0.71600
O877        O  0.18736038  0.40682565  0.17320318    -0.45300
C878        C  0.21356057  0.31299769  0.16824881     0.76300
O879        O  0.16291898  0.37503508  0.14761819    -0.57200
O880        O  0.23667693  0.32806547  0.16353378    -0.47300
O881        O  0.20051958  0.35131060  0.13763982    -0.53600
C882        C  0.25130259  0.40534174  0.14474627     0.86500
O883        O  0.22991863  0.38516377  0.17928480    -0.55500
O884        O  0.18844765  0.32852891  0.16872790    -0.58800
In885      In  0.24223842  0.53510185  0.24849753     1.36900
C886        C  0.28532687  0.56902789  0.23515621     0.78900
O887        O  0.25443596  0.49447298  0.23477256    -0.59500
O888        O  0.21064285  0.51600312  0.23124908    -0.50500
C889        C  0.25431893  0.49767308  0.27052975     0.71600
O890        O  0.27288434  0.51858585  0.26630939    -0.45300
C891        C  0.20395809  0.57623232  0.26097921     0.76300
O892        O  0.29154326  0.55025736  0.24509289    -0.57200
O893        O  0.19449052  0.55572206  0.25229521    -0.47300
O894        O  0.25670363  0.57069897  0.23214326    -0.53600
C895        C  0.22956273  0.49473537  0.22764624     0.86500
O896        O  0.22943238  0.49591849  0.26340695    -0.55500
O897        O  0.23298256  0.57592486  0.26294309    -0.58800
In898      In  0.24966023  0.97110379  0.25276611     1.36900
C899        C  0.20812169  0.93393225  0.26572081     0.78900
O900        O  0.26365977  0.93387459  0.23717864    -0.59500
O901        O  0.29876932  0.95301208  0.25036535    -0.50500
C902        C  0.23706403  0.00872119  0.23101892     0.71600
O903        O  0.21896012  0.98696349  0.23483622    -0.45300
C904        C  0.26153238  0.01295228  0.27312333     0.76300
O905        O  0.20063058  0.95367073  0.25636535    -0.57200
O906        O  0.27930204  0.99005079  0.27057166    -0.47300
O907        O  0.23694097  0.93300961  0.26826684    -0.53600
C908        C  0.29208936  0.93393549  0.24057469     0.86500
O909        O  0.26191031  0.01056657  0.23815287    -0.55500
O910        O  0.23744412  0.01388846  0.26546095    -0.58800
In911      In  0.27886883  0.13774175  0.34153430     1.36900
C912        C  0.31838490  0.14868327  0.36269352     0.78900
O913        O  0.29834667  0.18098931  0.33143244    -0.59500
O914        O  0.25164105  0.18191301  0.33890488    -0.50500
C915        C  0.28053668  0.10365162  0.31793070     0.71600
O916        O  0.30254591  0.10344457  0.32688084    -0.45300
C917        C  0.23915219  0.10156023  0.35547434     0.76300
O918        O  0.32683313  0.13459868  0.35148851    -0.57200
O919        O  0.23148049  0.12815590  0.35066284    -0.47300
O920        O  0.29019528  0.15688899  0.36277158    -0.53600
C921        C  0.27404554  0.19707034  0.33356606     0.86500
O922        O  0.25906432  0.12292865  0.32064779    -0.55500
O923        O  0.26696591  0.09384568  0.35302460    -0.58800
In924      In  0.27783596  0.38898860  0.34478888     1.36900
C925        C  0.31782819  0.37589247  0.36565509     0.78900
O926        O  0.26451711  0.43145274  0.35697240    -0.59500
O927        O  0.23306797  0.39278911  0.35675364    -0.50500
C928        C  0.27413718  0.42266071  0.32105367     0.71600
O929        O  0.29750729  0.42450489  0.32928379    -0.45300
C930        C  0.27375409  0.33139493  0.33483899     0.76300
O931        O  0.32669295  0.39023383  0.35454968    -0.57200
O932        O  0.25085769  0.34583880  0.34013783    -0.47300
O933        O  0.28946437  0.36846733  0.36559618    -0.53600
C934        C  0.23940912  0.41976945  0.36155460     0.86500
O935        O  0.25334926  0.40384965  0.32513533    -0.55500
O936        O  0.29846892  0.34742163  0.33388181    -0.58800
In937      In  0.58399585  0.32934508  0.43655388     1.36900
C938        C  0.58469306  0.26705637  0.43762532     0.78900
O939        O  0.53913258  0.32725688  0.44907752    -0.59500
O940        O  0.53817907  0.34805758  0.42863042    -0.50500
C941        C  0.61321314  0.37114777  0.45305771     0.71600
O942        O  0.61459419  0.34196895  0.45532397    -0.45300
C943        C  0.61764390  0.33697971  0.41307485     0.76300
O944        O  0.59354752  0.28365705  0.44800348    -0.57200
O945        O  0.58937928  0.34495399  0.41388651    -0.47300
O946        O  0.57546858  0.28228007  0.42695518    -0.53600
C947        C  0.52297742  0.33974928  0.43941756     0.86500
O948        O  0.59589726  0.37854337  0.44277884    -0.55500
O949        O  0.62842983  0.32505154  0.42431150    -0.58800
In950      In  0.58342661  0.17039832  0.43676772     1.36900
C951        C  0.58480834  0.23268442  0.43765845     0.78900
O952        O  0.62466555  0.17709054  0.42284007    -0.59500
O953        O  0.58990939  0.14539866  0.41577764    -0.50500
C954        C  0.61141532  0.13009282  0.45454900     0.71600
O955        O  0.61793520  0.15897391  0.45416734    -0.45300
C956        C  0.52183768  0.16669365  0.43847168     0.76300
O957        O  0.59293078  0.21623875  0.44820329    -0.57200
O958        O  0.53679807  0.15938316  0.42745789    -0.47300
O959        O  0.57646390  0.21729920  0.42687366    -0.53600
C960        C  0.61558885  0.15865015  0.41320517     0.86500
O961        O  0.58973099  0.12227419  0.44620898    -0.55500
O962        O  0.53845207  0.17394745  0.44905126    -0.58800
In963      In  0.42651257  0.17790453  0.43672608     1.36900
C964        C  0.42535323  0.24033009  0.43824648     0.78900
O965        O  0.47205212  0.17783877  0.44896715    -0.59500
O966        O  0.47208274  0.16308183  0.42744803    -0.50500
C967        C  0.39628103  0.13850202  0.45413906     0.71600
O968        O  0.39506579  0.16794034  0.45539608    -0.45300
C969        C  0.39408797  0.16859078  0.41289456     0.76300
O970        O  0.41585971  0.22327744  0.44829749    -0.57200
O971        O  0.42001965  0.15562237  0.41514998    -0.47300
O972        O  0.43567404  0.22551465  0.42767177    -0.53600
C973        C  0.48778271  0.16868489  0.43845151     0.86500
O974        O  0.41406308  0.12937469  0.44434711    -0.55500
O975        O  0.38489340  0.18581638  0.42293481    -0.58800
In976      In  0.42694380  0.33718616  0.43874417     1.36900
C977        C  0.42484510  0.27472694  0.43860498     0.78900
O978        O  0.38278140  0.33403082  0.42598126    -0.59500
O979        O  0.42121801  0.35777470  0.41686972    -0.50500
C980        C  0.39919043  0.37704320  0.45690826     0.71600
O981        O  0.39995445  0.34777614  0.45892393    -0.45300
C982        C  0.48887931  0.34212864  0.44005939     0.76300
O983        O  0.41547216  0.29058061  0.44910000    -0.57200
O984        O  0.47301068  0.35266354  0.42987542    -0.47300
O985        O  0.43427186  0.29076443  0.42825731    -0.53600
C986        C  0.39338314  0.34878573  0.41541491     0.86500
O987        O  0.41432666  0.38580144  0.44616775    -0.55500
O988        O  0.47301133  0.33165805  0.45025379    -0.58800
In989      In  0.92075772  0.15689450  0.06021232     1.36900
C990        C  0.91746385  0.21900411  0.05833041     0.78900
O991        O  0.87788877  0.15960830  0.07349603    -0.59500
O992        O  0.91926144  0.14301469  0.08325273    -0.50500
C993        C  0.89080288  0.11514393  0.04374501     0.71600
O994        O  0.88749739  0.14442141  0.04255998    -0.45300
C995        C  0.98200908  0.15050739  0.05818941     0.76300
O996        O  0.91239610  0.20154284  0.04771371    -0.57200
O997        O  0.96636913  0.13837038  0.06804500    -0.47300
O998        O  0.92415235  0.20472855  0.06961651    -0.53600
C999        C  0.89081472  0.14969603  0.08466925     0.86500
O1000       O  0.91075745  0.10729134  0.05291440    -0.55500
O1001       O  0.96616381  0.16384398  0.04866758    -0.58800
In1002     In  0.07685869  0.15907176  0.06122867     1.36900
C1003       C  0.07739247  0.22140573  0.06094829     0.78900
O1004       O  0.03210759  0.16419963  0.04901163    -0.59500
O1005       O  0.03119471  0.14121301  0.06906440    -0.50500
C1006       C  0.10539159  0.11973248  0.04355030     0.71600
O1007       O  0.11194634  0.14855703  0.04425523    -0.45300
C1008       C  0.10836069  0.14708654  0.08491331     0.76300
O1009       O  0.08347606  0.20543421  0.04999380    -0.57200
O1010       O  0.08043433  0.13862483  0.08318852    -0.47300
O1011       O  0.07142565  0.20555371  0.07188761    -0.53600
C1012       C  0.01599730  0.15135472  0.05856698     0.86500
O1013       O  0.08323716  0.11152039  0.05145877    -0.55500
O1014       O  0.12003896  0.16093750  0.07436200    -0.58800
In1015     In  0.91609014  0.31555184  0.05832474     1.36900
C1016       C  0.91612405  0.25329636  0.05789861     0.78900
O1017       O  0.96241406  0.31363719  0.04729972    -0.59500
O1018       O  0.96062353  0.32834600  0.06892413    -0.50500
C1019       C  0.88998782  0.35561164  0.04025626     0.71600
O1020       O  0.88152219  0.32730089  0.04116726    -0.45300
C1021       C  0.88272708  0.33007793  0.08106024     0.76300
O1022       O  0.91143983  0.26907569  0.04675043    -0.57200
O1023       O  0.90983217  0.34049696  0.07898553    -0.47300
O1024       O  0.92010591  0.26930674  0.06900093    -0.53600
C1025       C  0.97718657  0.32201594  0.05827979     0.86500
O1026       O  0.91296792  0.36256948  0.04797440    -0.55500
O1027       O  0.87245429  0.31273759  0.07122900    -0.58800
In1028     In  0.07216966  0.31802326  0.06195868     1.36900
C1029       C  0.07650274  0.25574582  0.06112533     0.78900
O1030       O  0.11511893  0.31987908  0.07516540    -0.59500
O1031       O  0.07372891  0.33869698  0.08397777    -0.50500
C1032       C  0.09944564  0.35894307  0.04460375     0.71600
O1033       O  0.10584644  0.33004431  0.04460973    -0.45300
C1034       C  0.01108232  0.32258874  0.05907202     0.76300
O1035       O  0.08094878  0.27246171  0.05027340    -0.57200
O1036       O  0.02518129  0.33016545  0.07030005    -0.47300
O1037       O  0.07049690  0.27083453  0.07228465    -0.53600
C1038       C  0.10234435  0.33302010  0.08566464     0.86500
O1039       O  0.07817625  0.36655452  0.05313891    -0.55500
O1040       O  0.02831428  0.31398974  0.04897745    -0.58800
C1041       C  0.38883109  0.36396399  0.38958135     0.24900
C1042       C  0.37460561  0.35513350  0.40247011    -0.23200
C1043       C  0.34200913  0.35237512  0.40291997     0.19800
C1044       C  0.32397482  0.35887592  0.39092994     0.29700
C1045       C  0.33796750  0.36845830  0.37808873    -0.23100
C1046       C  0.37067789  0.37052015  0.37749006     0.19800
F1047       F  0.38515913  0.37818869  0.36516866    -0.13100
F1048       F  0.42035161  0.36564460  0.38858295    -0.15500
F1049       F  0.29254078  0.35609560  0.39204950    -0.15500
F1050       F  0.32729164  0.34392861  0.41508731    -0.13100
C1051       C  0.36815039  0.13987312  0.37640374     0.24900
C1052       C  0.33910437  0.15490777  0.37499086    -0.23200
C1053       C  0.32908614  0.17527264  0.38586066     0.19800
C1054       C  0.34708195  0.17972653  0.39803608     0.24900
C1055       C  0.37576984  0.16416555  0.39967326    -0.23100
C1056       C  0.38635891  0.14448103  0.38862937     0.19800
F1057       F  0.41410794  0.12932806  0.38969261    -0.13100
F1058       F  0.37862519  0.12009926  0.36614475    -0.15500
F1059       F  0.33605167  0.19918958  0.40829986    -0.15500
F1060       F  0.30164992  0.19101000  0.38480307    -0.13100
C1061       C  0.24455076  0.28074806  0.33343875     0.24900
C1062       C  0.27233154  0.29763276  0.33128140    -0.23200
C1063       C  0.29962584  0.28113173  0.32772530     0.19800
C1064       C  0.29978127  0.24830014  0.32763312     0.24900
C1065       C  0.27258500  0.23134629  0.33100722    -0.23100
C1066       C  0.24473472  0.24796200  0.33345464     0.19800
F1067       F  0.21791018  0.23263475  0.33667389    -0.13100
F1068       F  0.21742117  0.29586176  0.33634466    -0.15500
F1069       F  0.32715890  0.23327024  0.32520000    -0.15500
F1070       F  0.32674026  0.29661470  0.32520606    -0.13100
C1071       C  0.25981511  0.08909650  0.29394464     0.24900
C1072       C  0.27869876  0.08180957  0.30572468    -0.23200
C1073       C  0.29308224  0.05212485  0.30638003     0.19800
C1074       C  0.28779630  0.02980089  0.29570321     0.24900
C1075       C  0.26828334  0.03685856  0.28411421    -0.23100
C1076       C  0.25484228  0.06693773  0.28320141     0.19800
F1077       F  0.23692959  0.07501408  0.27186533    -0.13100
F1078       F  0.24592695  0.11766281  0.29285515    -0.15500
F1079       F  0.30060384  0.00078412  0.29706058    -0.15500
F1080       F  0.31083367  0.04399334  0.31775323    -0.13100
C1081       C  0.24315510  0.45015110  0.28538050     0.24900
C1082       C  0.26093130  0.47736581  0.28295302    -0.23200
C1083       C  0.28449651  0.48546230  0.29274962     0.19800
C1084       C  0.28931165  0.46743185  0.30500446     0.24900
C1085       C  0.27068481  0.44091297  0.30771326    -0.23100
C1086       C  0.24780986  0.43227181  0.29764898     0.19800
F1087       F  0.22982759  0.40637594  0.29962057    -0.13100
F1088       F  0.22133434  0.44059461  0.27582694    -0.15500
F1089       F  0.31153964  0.47659682  0.31442192    -0.15500
F1090       F  0.30238146  0.51138471  0.29070413    -0.13100
C1091       C  0.12283165  0.36426058  0.12247166     0.24900
C1092       C  0.15392095  0.35409902  0.12383835    -0.23200
C1093       C  0.16770770  0.33767962  0.11246748     0.19800
C1094       C  0.15089914  0.33112479  0.10018155     0.24900
C1095       C  0.11972222  0.34071374  0.09882179    -0.23100
C1096       C  0.10578369  0.35743754  0.11009081     0.19800
F1097       F  0.07577198  0.36734759  0.10913746    -0.13100
F1098       F  0.10897486  0.38094064  0.13301307    -0.15500
F1099       F  0.16541968  0.31509596  0.08961885    -0.15500
F1100       F  0.19778932  0.32785292  0.11309488    -0.13100
C1101       C  0.18981966  0.44902433  0.19786799     0.24900
C1102       C  0.21317294  0.42724371  0.19425684    -0.23200
C1103       C  0.24160542  0.42787153  0.20176014     0.19800
C1104       C  0.24674329  0.44984235  0.21247387     0.24900
C1105       C  0.22354132  0.47175234  0.21611688    -0.23100
C1106       C  0.19499379  0.47117427  0.20867310     0.19800
F1107       F  0.17216395  0.49218095  0.21171795    -0.13100
F1108       F  0.16207521  0.44908826  0.19090048    -0.15500
F1109       F  0.27492668  0.44988547  0.21907620    -0.15500
F1110       F  0.26511947  0.40776459  0.19850359    -0.13100
C1111       C  0.17150160  0.15300662  0.11279500     0.24900
C1112       C  0.15968519  0.13409962  0.12380985    -0.23200
C1113       C  0.13054910  0.11941980  0.12196853     0.19800
C1114       C  0.11378784  0.12338063  0.10929448     0.24900
C1115       C  0.12590879  0.14206932  0.09825844    -0.23100
C1116       C  0.15493567  0.15680288  0.10019232     0.19800
F1117       F  0.16740873  0.17530922  0.08992904    -0.13100
F1118       F  0.19925435  0.16810164  0.11414363    -0.15500
F1119       F  0.08590916  0.10861792  0.10779361    -0.15500
F1120       F  0.11840831  0.10092664  0.13231414    -0.13100
C1121       C  0.23966023  0.07940324  0.20673514     0.24900
C1122       C  0.21767491  0.07114259  0.19626313    -0.23200
C1123       C  0.20073879  0.04307057  0.19773696     0.19800
C1124       C  0.20659662  0.02299860  0.20918808     0.24900
C1125       C  0.22974248  0.03050124  0.21926629    -0.23100
C1126       C  0.24591549  0.05913005  0.21801783     0.19800
F1127       F  0.26791997  0.06759350  0.22768992    -0.13100
F1128       F  0.25545101  0.10703200  0.20598581    -0.15500
F1129       F  0.19049910  0.99560367  0.21005145    -0.15500
F1130       F  0.17965787  0.03420030  0.18772432    -0.13100
C1131       C  0.24408000  0.26326711  0.17019102     0.24900
C1132       C  0.21551583  0.27915191  0.17170076    -0.23200
C1133       C  0.18845678  0.26157477  0.17455900     0.19800
C1134       C  0.18941793  0.22870583  0.17431902     0.24900
C1135       C  0.21732882  0.21292732  0.17096424    -0.23100
C1136       C  0.24491905  0.23052672  0.16962010     0.19800
F1137       F  0.27259421  0.21625386  0.16696228    -0.13100
F1138       F  0.27111839  0.27937579  0.16841687    -0.15500
F1139       F  0.16259863  0.21250590  0.17654118    -0.15500
F1140       F  0.16066538  0.27603964  0.17673553    -0.13100
C1141       C  0.86238504  0.35872303  0.11804253     0.24900
C1142       C  0.83142383  0.34839930  0.11941722    -0.23200
C1143       C  0.81745488  0.33202404  0.10801780     0.19800
C1144       C  0.83385758  0.32671282  0.09545888     0.24900
C1145       C  0.86486243  0.33696600  0.09410426    -0.23100
C1146       C  0.87898524  0.35292676  0.10555282     0.19800
F1147       F  0.90905940  0.36269420  0.10477658    -0.13100
F1148       F  0.87670678  0.37451798  0.12875970    -0.15500
F1149       F  0.81922822  0.31151137  0.08463402    -0.15500
F1150       F  0.78788580  0.32081866  0.10898474    -0.13100
C1151       C  0.86811456  0.12205448  0.12156384     0.24900
C1152       C  0.83807656  0.13494755  0.12288586    -0.23200
C1153       C  0.82667456  0.15451630  0.11196704     0.19800
C1154       C  0.84419739  0.15982563  0.09976334     0.24900
C1155       C  0.87372513  0.14602996  0.09818610    -0.23100
C1156       C  0.88600198  0.12797469  0.10941544     0.19800
F1157       F  0.91493677  0.11524990  0.10849527    -0.13100
F1158       F  0.87981069  0.10286100  0.13176977    -0.15500
F1159       F  0.83207360  0.17854577  0.08946159    -0.15500
F1160       F  0.79824257  0.16837212  0.11293337    -0.13100
C1161       C  0.74297190  0.22433177  0.16312784     0.24900
C1162       C  0.77022215  0.20762977  0.16668586    -0.23200
C1163       C  0.79681474  0.22437817  0.17106523     0.19800
C1164       C  0.79708957  0.25710962  0.17068938     0.24900
C1165       C  0.77064044  0.27381556  0.16608782    -0.23100
C1166       C  0.74310311  0.25715411  0.16296783     0.19800
F1167       F  0.71672999  0.27244319  0.15897322    -0.13100
F1168       F  0.71662291  0.20903438  0.15905189    -0.15500
F1169       F  0.82387580  0.27228144  0.17418920    -0.15500
F1170       F  0.82334116  0.20915825  0.17489319    -0.13100
C1171       C  0.80284117  0.45971750  0.20680919     0.24900
C1172       C  0.77777555  0.45616373  0.21632701    -0.23200
C1173       C  0.75778418  0.43016104  0.21468471     0.19800
C1174       C  0.76164648  0.40928453  0.20339873     0.24900
C1175       C  0.78535628  0.41400334  0.19331312    -0.23100
C1176       C  0.80681287  0.43858807  0.19549622     0.19800
F1177       F  0.83094871  0.44295000  0.18640963    -0.13100
F1178       F  0.82306064  0.48407900  0.20819258    -0.15500
F1179       F  0.74134012  0.38493359  0.20213382    -0.15500
F1180       F  0.73342927  0.42553163  0.22362705    -0.13100
C1181       C  0.68682359  0.33837523  0.38812972     0.24900
C1182       C  0.67376287  0.35141261  0.37571029    -0.23200
C1183       C  0.64177787  0.35857980  0.37550907     0.19800
C1184       C  0.62339364  0.35344558  0.38755149     0.24900
C1185       C  0.63669333  0.34135768  0.40010848    -0.23100
C1186       C  0.66862513  0.33380206  0.40021788     0.19800
F1187       F  0.68261688  0.32254278  0.41212461    -0.13100
F1188       F  0.71745830  0.33041558  0.38874497    -0.15500
F1189       F  0.59262248  0.36071060  0.38691985    -0.15500
F1190       F  0.62826727  0.37098972  0.36373173    -0.13100
C1191       C  0.71073372  0.45346471  0.30470610     0.24900
C1192       C  0.72530548  0.42384625  0.30517116    -0.23200
C1193       C  0.74239562  0.41352431  0.29335116     0.19800
C1194       C  0.74693836  0.43323910  0.28174697     0.24900
C1195       C  0.73454097  0.46377329  0.28168624    -0.23100
C1196       C  0.71550685  0.47344832  0.29304777     0.19800
F1197       F  0.70326617  0.50286091  0.29331412    -0.13100
F1198       F  0.69366295  0.46387547  0.31589011    -0.15500
F1199       F  0.76396124  0.42253918  0.27060531    -0.15500
F1200       F  0.75539367  0.38443556  0.29315485    -0.13100
C1201       C  0.64266534  0.12611221  0.37760837     0.24900
C1202       C  0.67081784  0.14256731  0.37574088    -0.23200
C1203       C  0.67959856  0.16525559  0.38587596     0.19800
C1204       C  0.66138606  0.17060176  0.39784430     0.24900
C1205       C  0.63381375  0.15341572  0.40006535    -0.23100
C1206       C  0.62429410  0.13148249  0.38968078     0.19800
F1207       F  0.59750026  0.11488218  0.39126526    -0.13100
F1208       F  0.63329144  0.10426367  0.36797845    -0.15500
F1209       F  0.67108381  0.19266389  0.40730908    -0.15500
F1210       F  0.70607474  0.18240414  0.38430566    -0.13100
C1211       C  0.77008614  0.23235749  0.33981693     0.24900
C1212       C  0.74766117  0.21513142  0.33214560    -0.23200
C1213       C  0.72682066  0.23125062  0.32317923     0.19800
C1214       C  0.72658200  0.26411489  0.32290414     0.24900
C1215       C  0.74731320  0.28129611  0.33152168    -0.23100
C1216       C  0.76992955  0.26510924  0.33948818     0.19800
F1217       F  0.79015287  0.28088172  0.34802864    -0.13100
F1218       F  0.79056872  0.21773444  0.34861809    -0.15500
F1219       F  0.70526199  0.27908128  0.31465391    -0.15500
F1220       F  0.70575156  0.21527773  0.31515568    -0.13100
C1221       C  0.70440609  0.03467465  0.29067250     0.24900
C1222       C  0.73147021  0.03302323  0.28228533    -0.23200
C1223       C  0.75628435  0.05373856  0.28518291     0.19800
C1224       C  0.75496946  0.07412794  0.29674735     0.24900
C1225       C  0.72885139  0.07424907  0.30573955    -0.23100
C1226       C  0.70314402  0.05508417  0.30233284     0.19800
F1227       F  0.67727751  0.05506175  0.31061132    -0.13100
F1228       F  0.67960676  0.01575442  0.28796392    -0.15500
F1229       F  0.77966910  0.09335313  0.29925122    -0.15500
F1230       F  0.78228106  0.05397081  0.27698028    -0.13100
C1231       C  0.74073504  0.04614386  0.21274228     0.24900
C1232       C  0.76331359  0.02428328  0.21709860    -0.23200
C1233       C  0.79189524  0.02295206  0.20974546     0.19800
C1234       C  0.79714081  0.04229988  0.19791636     0.24900
C1235       C  0.77405429  0.06358548  0.19337419    -0.23100
C1236       C  0.74606926  0.06558961  0.20113220     0.19800
F1237       F  0.72324311  0.08607468  0.19738219    -0.13100
F1238       F  0.71307627  0.04869258  0.21962937    -0.15500
F1239       F  0.82451879  0.03973525  0.19080878    -0.15500
F1240       F  0.81460190  0.00263314  0.21383027    -0.13100
C1241       C  0.16977530  0.07327007  0.37684865     0.24900
C1242       C  0.17876421  0.04228148  0.38012034    -0.23200
C1243       C  0.20704158  0.03069263  0.37465980     0.19800
C1244       C  0.22619456  0.04977894  0.36641698     0.24900
C1245       C  0.21772871  0.08104892  0.36350588    -0.23100
C1246       C  0.18917790  0.09253154  0.36868599     0.19800
F1247       F  0.18032895  0.12265009  0.36617926    -0.13100
F1248       F  0.14242444  0.08517845  0.38167621    -0.15500
F1249       F  0.25315362  0.03747253  0.36132194    -0.15500
F1250       F  0.21654046  0.00085968  0.37738417    -0.13100
C1251       C  0.83475970  0.05613377  0.38163095     0.24900
C1252       C  0.82470177  0.02553167  0.38490086    -0.23200
C1253       C  0.79676505  0.01425882  0.37892524     0.19800
C1254       C  0.77887241  0.03342967  0.37012166     0.24900
C1255       C  0.78866357  0.06421159  0.36700368    -0.23100
C1256       C  0.81692601  0.07527322  0.37275977     0.19800
F1257       F  0.82726335  0.10478186  0.36997138    -0.13100
F1258       F  0.86190656  0.06765564  0.38696290    -0.15500
F1259       F  0.75197428  0.02166790  0.36464759    -0.15500
F1260       F  0.78667424  0.98455903  0.38151474    -0.13100
C1261       C  0.98413085  0.01230557  0.41663924     0.24900
C1262       C  0.96988753  0.98376259  0.42058090    -0.23200
C1263       C  0.98876668  0.95901463  0.42545613     0.19800
C1264       C  0.02121848  0.96167472  0.42518481     0.24900
C1265       C  0.03551407  0.98916065  0.42000350    -0.23100
C1266       C  0.01660768  0.01493892  0.41632345     0.19800
F1267       F  0.02940678  0.04212352  0.41153692    -0.13100
F1268       F  0.96678688  0.03719212  0.41226702    -0.15500
F1269       F  0.03851731  0.93641610  0.42910334    -0.15500
F1270       F  0.97597343  0.93134286  0.42961411    -0.13100
C1271       C  0.33894996  0.10721167  0.48153906     0.24900
C1272       C  0.34011724  0.07456535  0.47903098    -0.23200
C1273       C  0.36023678  0.06326111  0.46837971     0.19800
C1274       C  0.37888154  0.08392754  0.46055834     0.24900
C1275       C  0.37772186  0.11654601  0.46304641    -0.23100
C1276       C  0.35751498  0.12793100  0.47365093     0.19800
F1277       F  0.35527010  0.15922409  0.47629536    -0.13100
F1278       F  0.31942578  0.11931273  0.49146608    -0.15500
F1279       F  0.39771158  0.07185455  0.45034845    -0.15500
F1280       F  0.36157855  0.03212868  0.46527802    -0.13100
C1281       C  0.20441830  0.02327422  0.46071803     0.24900
C1282       C  0.22326119  0.99834737  0.46549945    -0.23200
C1283       C  0.22245672  0.96968598  0.45795819     0.19800
C1284       C  0.20307753  0.96608523  0.44600020     0.24900
C1285       C  0.18373860  0.99090298  0.44146659    -0.23100
C1286       C  0.18492001  0.01958569  0.44894309     0.19800
F1287       F  0.16721356  0.04445602  0.44487722    -0.13100
F1288       F  0.20474795  0.05156013  0.46740695    -0.15500
F1289       F  0.20357487  0.93842811  0.43879823    -0.15500
F1290       F  0.24052027  0.94512923  0.46207179    -0.13100
C1291       C  0.20773076  0.06003202  0.55604117     0.24900
C1292       C  0.18125249  0.04082201  0.55764945    -0.23200
C1293       C  0.17353084  0.01959683  0.54675282     0.19800
C1294       C  0.19255605  0.01629140  0.53486170     0.24900
C1295       C  0.22017089  0.03390341  0.53356307    -0.23100
C1296       C  0.22717103  0.05647152  0.54411893     0.19800
F1297       F  0.25338038  0.07423992  0.54320730    -0.13100
F1298       F  0.21567602  0.08105435  0.56629540    -0.15500
F1299       F  0.18399051  0.99530440  0.52470547    -0.15500
F1300       F  0.14743314  0.00163914  0.54765489    -0.13100
C1301       C  0.98891612  0.99838499  0.58238279     0.24900
C1302       C  0.97199703  0.02580996  0.57911348    -0.23200
C1303       C  0.98843907  0.05287651  0.57493081     0.19800
C1304       C  0.02100212  0.05357769  0.57556651     0.24900
C1305       C  0.03780537  0.02700258  0.58010965    -0.23100
C1306       C  0.02148516  0.99888577  0.58271125     0.19800
F1307       F  0.03686031  0.97222996  0.58642238    -0.13100
F1308       F  0.97403541  0.97142224  0.58604392    -0.15500
F1309       F  0.03586448  0.08091976  0.57252981    -0.15500
F1310       F  0.97305750  0.07943058  0.57110306    -0.13100
C1311       C  0.67205357  0.09395181  0.47921427     0.24900
C1312       C  0.66304046  0.06211071  0.47932611    -0.23200
C1313       C  0.63606770  0.05320147  0.47180427     0.19800
C1314       C  0.61905102  0.07533583  0.46399342     0.24900
C1315       C  0.62835010  0.10709170  0.46363181    -0.23100
C1316       C  0.65484066  0.11620100  0.47151557     0.19800
F1317       F  0.66468662  0.14653200  0.47151526    -0.13100
F1318       F  0.69818513  0.10349524  0.48615620    -0.15500
F1319       F  0.59358062  0.06544702  0.45665927    -0.15500
F1320       F  0.62599359  0.02295884  0.47201298    -0.13100
C1321       C  0.80661737  0.99119488  0.53474573     0.24900
C1322       C  0.78220966  0.01247163  0.53194692    -0.23200
C1323       C  0.77961410  0.03958982  0.54046495     0.19800
C1324       C  0.80062232  0.04513369  0.55159644     0.24900
C1325       C  0.82464239  0.02362403  0.55453400    -0.23100
C1326       C  0.82744590  0.99662227  0.54594850     0.19800
F1327       F  0.85026989  0.97519179  0.54843194    -0.13100
F1328       F  0.81024392  0.96481949  0.52678143    -0.15500
F1329       F  0.79661994  0.07100707  0.55983745    -0.15500
F1330       F  0.75634520  0.06061639  0.53822632    -0.13100
C1331       C  0.77706928  0.94963549  0.45784528     0.24900
C1332       C  0.77981055  0.97553541  0.46712318    -0.23200
C1333       C  0.80575929  0.99553995  0.46584680     0.19800
C1334       C  0.82777990  0.99063113  0.45527235     0.24900
C1335       C  0.82446695  0.96572829  0.44559240    -0.23100
C1336       C  0.79935681  0.94471771  0.44715923     0.19800
F1337       F  0.79548414  0.92047471  0.43793011    -0.13100
F1338       F  0.75234862  0.92980344  0.45874945    -0.15500
F1339       F  0.85232786  0.01069213  0.45441570    -0.15500
F1340       F  0.80992354  0.02023159  0.47480728    -0.13100
C1341       C  0.12629284  0.11504919  0.63374299     0.24900
C1342       C  0.10532064  0.09268893  0.62828855    -0.23200
C1343       C  0.07683540  0.08762780  0.63532081     0.19800
C1344       C  0.06961818  0.10431849  0.64765140     0.24900
C1345       C  0.09077509  0.12636399  0.65323379    -0.23100
C1346       C  0.11903055  0.13184197  0.64608177     0.19800
F1347       F  0.14008330  0.15280128  0.65124687    -0.13100
F1348       F  0.15437922  0.11975728  0.62748803    -0.15500
F1349       F  0.04165667  0.09920901  0.65398302    -0.15500
F1350       F  0.05572937  0.06665640  0.63019731    -0.13100
C1351       C  0.87593857  0.13626059  0.63943670     0.24900
C1352       C  0.89778142  0.12710389  0.64984294    -0.23200
C1353       C  0.91797278  0.10194007  0.64689717     0.19800
C1354       C  0.91571644  0.08555393  0.63413711     0.24900
C1355       C  0.89345819  0.09407812  0.62381202    -0.23100
C1356       C  0.87381813  0.11989352  0.62650770     0.19800
F1357       F  0.85183428  0.12861865  0.61689752    -0.13100
F1358       F  0.85611461  0.16051384  0.64188652    -0.15500
F1359       F  0.93525787  0.06087984  0.63205149    -0.15500
F1360       F  0.94025917  0.09308243  0.65634888    -0.13100
C1361       C  0.17468413  0.63671435  0.28743655     0.24900
C1362       C  0.14221976  0.63448292  0.28562955    -0.23200
C1363       C  0.13039960  0.61557008  0.27456348     0.19800
C1364       C  0.15051240  0.59762474  0.26614143     0.24900
C1365       C  0.18287645  0.59806464  0.26864874    -0.23100
C1366       C  0.19477029  0.61851882  0.27913700     0.19800
F1367       F  0.22585170  0.62022761  0.28176563    -0.13100
F1368       F  0.18709886  0.65560716  0.29761748    -0.15500
F1369       F  0.13811652  0.57926510  0.25575982    -0.15500
F1370       F  0.09927324  0.61397624  0.27199651    -0.13100
C1371       C  0.87686261  0.59651251  0.27333943     0.24900
C1372       C  0.86593451  0.61937664  0.28298234    -0.23200
C1373       C  0.83355786  0.62198192  0.28511902     0.19800
C1374       C  0.81272834  0.60204333  0.27810091     0.24900
C1375       C  0.82346693  0.57913665  0.26849371    -0.23100
C1376       C  0.85584332  0.57665281  0.26614752     0.19800
F1377       F  0.86727889  0.55484101  0.25700150    -0.13100
F1378       F  0.90786350  0.59315319  0.27090453    -0.15500
F1379       F  0.78186278  0.60509161  0.28092799    -0.15500
F1380       F  0.82176489  0.64354152  0.29428378    -0.13100
C1381       C  0.13204881  0.89412104  0.27604501     0.24900
C1382       C  0.14078157  0.87784155  0.28843111    -0.23200
C1383       C  0.17198560  0.87953617  0.29304737     0.19800
C1384       C  0.19380545  0.89751257  0.28560756     0.24900
C1385       C  0.18508575  0.91398972  0.27326676    -0.23100
C1386       C  0.15399286  0.91184676  0.26849316     0.19800
F1387       F  0.14470746  0.92688800  0.25649876    -0.13100
F1388       F  0.10224670  0.89286470  0.27119074    -0.15500
F1389       F  0.22329241  0.89954429  0.29080337    -0.15500
F1390       F  0.18127388  0.86474986  0.30510978    -0.13100
C1391       C  0.10916666  0.87318334  0.36142641     0.24900
C1392       C  0.08888983  0.88373006  0.35067329    -0.23200
C1393       C  0.07437964  0.91309751  0.35214603     0.19800
C1394       C  0.08115477  0.93229147  0.36376679     0.24900
C1395       C  0.10238301  0.92237603  0.37432092    -0.23100
C1396       C  0.11580739  0.89231095  0.37317040     0.19800
F1397       F  0.13604331  0.88169517  0.38317416    -0.13100
F1398       F  0.12361681  0.84491512  0.36029924    -0.15500
F1399       F  0.06718288  0.96087753  0.36448315    -0.15500
F1400       F  0.05355151  0.92335813  0.34229909    -0.13100
C1401       C  0.79870723  0.88353596  0.27981964     0.24900
C1402       C  0.80759939  0.90946389  0.27154168    -0.23200
C1403       C  0.83937618  0.91724404  0.27050468     0.19800
C1404       C  0.86186019  0.89955519  0.27763126     0.24900
C1405       C  0.85309245  0.87365167  0.28598847    -0.23100
C1406       C  0.82123438  0.86570357  0.28693225     0.19800
F1407       F  0.81170323  0.84088003  0.29486261    -0.13100
F1408       F  0.76823696  0.87528570  0.28098448    -0.15500
F1409       F  0.89216901  0.90841923  0.27659717    -0.15500
F1410       F  0.84873185  0.94274829  0.26297434    -0.13100
C1411       C  0.87556660  0.86937248  0.35785867     0.24900
C1412       C  0.89978674  0.87771324  0.34850384    -0.23200
C1413       C  0.92045643  0.90181474  0.35246171     0.19800
C1414       C  0.91724560  0.91710522  0.36545806     0.24900
C1415       C  0.89302235  0.90904655  0.37484241    -0.23100
C1416       C  0.87220918  0.88490898  0.37093672     0.19800
F1417       F  0.84820085  0.87683803  0.37956485    -0.13100
F1418       F  0.85475873  0.84666013  0.35423909    -0.15500
F1419       F  0.93818116  0.93987991  0.36883981    -0.15500
F1420       F  0.94437713  0.91035723  0.34386963    -0.13100
C1421       C  0.08053800  0.42592586  0.63409260     0.24900
C1422       C  0.10276451  0.41659974  0.62395525    -0.23200
C1423       C  0.12037147  0.38924961  0.62646090     0.19800
C1424       C  0.11649303  0.37223222  0.63909559     0.24900
C1425       C  0.09504825  0.38239771  0.64945131    -0.23100
C1426       C  0.07685645  0.40917936  0.64667617     0.19800
F1427       F  0.05504984  0.41917127  0.65608410    -0.13100
F1428       F  0.06210497  0.45140132  0.63187628    -0.15500
F1429       F  0.13414504  0.34620464  0.64127678    -0.15500
F1430       F  0.14185150  0.37936336  0.61687958    -0.13100
C1431       C  0.87870898  0.39012104  0.62592576     0.24900
C1432       C  0.89273687  0.41976974  0.62424209    -0.23200
C1433       C  0.91320160  0.43070900  0.63490134     0.19800
C1434       C  0.91825837  0.41325721  0.64722988     0.24900
C1435       C  0.90313889  0.38429602  0.64924425    -0.23100
C1436       C  0.88362391  0.37267577  0.63836008     0.19800
F1437       F  0.86871883  0.34472079  0.63982854    -0.13100
F1438       F  0.85971565  0.37821649  0.61569490    -0.15500
F1439       F  0.93802190  0.42493704  0.65721821    -0.15500
F1440       F  0.92837036  0.45854774  0.63350572    -0.13100
C1441       C  0.97743878  0.51381951  0.58149069     0.24900
C1442       C  0.96007943  0.48678243  0.57806350    -0.23200
C1443       C  0.97606132  0.45963977  0.57355997     0.19800
C1444       C  0.00865743  0.45851060  0.57405690     0.24900
C1445       C  0.02587664  0.48463002  0.57890383    -0.23100
C1446       C  0.00994192  0.51270260  0.58200312     0.19800
F1447       F  0.02559876  0.53870386  0.58639320    -0.13100
F1448       F  0.96300058  0.54097308  0.58522170    -0.15500
F1449       F  0.02314602  0.43123138  0.57053824    -0.15500
F1450       F  0.96022613  0.43352037  0.56943751    -0.13100
C1451       C  0.35444623  0.44964794  0.46831375     0.24900
C1452       C  0.34179564  0.44050953  0.48145928    -0.23200
C1453       C  0.34915080  0.41048338  0.48680774     0.19800
C1454       C  0.36843446  0.39001960  0.47906289     0.24900
C1455       C  0.38078357  0.39917546  0.46582668    -0.23100
C1456       C  0.37363024  0.42933252  0.46063138     0.19800
F1457       F  0.38427180  0.43898728  0.44778970    -0.13100
F1458       F  0.34799541  0.47829608  0.46269269    -0.15500
F1459       F  0.37480157  0.36118730  0.48449655    -0.15500
F1460       F  0.33716807  0.40057370  0.49936769    -0.13100
C1461       C  0.21450249  0.45527492  0.54030765     0.24900
C1462       C  0.21282327  0.48150719  0.53127296    -0.23200
C1463       C  0.18643314  0.50108826  0.53191719     0.19800
C1464       C  0.16357815  0.49611294  0.54222349     0.24900
C1465       C  0.16701496  0.47185747  0.55225496    -0.23100
C1466       C  0.19182823  0.45053034  0.55074997     0.19800
F1467       F  0.19536559  0.42627378  0.55996214    -0.13100
F1468       F  0.23908983  0.43528366  0.53964269    -0.15500
F1469       F  0.13854315  0.51563286  0.54263983    -0.15500
F1470       F  0.18289853  0.52534164  0.52268702    -0.13100
C1471       C  0.17141898  0.44101973  0.38542814     0.24900
C1472       C  0.18193354  0.46956977  0.39129011    -0.23200
C1473       C  0.21234528  0.47990382  0.38823968     0.19800
C1474       C  0.23084894  0.46359419  0.37863815     0.24900
C1475       C  0.21971576  0.43614477  0.37204331    -0.23100
C1476       C  0.19023379  0.42435148  0.37590695     0.19800
F1477       F  0.17926378  0.39710682  0.37026918    -0.13100
F1478       F  0.14272472  0.42957607  0.38860845    -0.15500
F1479       F  0.25972426  0.47498714  0.37577372    -0.15500
F1480       F  0.22416886  0.50635909  0.39428012    -0.13100
C1481       C  0.11692004  0.62084127  0.37678750     0.24900
C1482       C  0.11192271  0.58812182  0.37665354    -0.23200
C1483       C  0.10246138  0.57375443  0.36386131     0.19800
C1484       C  0.09743749  0.59153047  0.35163797     0.24900
C1485       C  0.10166572  0.62430558  0.35175537    -0.23100
C1486       C  0.11185753  0.63877688  0.36445611     0.19800
F1487       F  0.11691741  0.67025209  0.36500132    -0.13100
F1488       F  0.12641172  0.63557296  0.38885224    -0.15500
F1489       F  0.08815403  0.57636175  0.33965912    -0.15500
F1490       F  0.09796559  0.54221233  0.36306288    -0.13100
C1491       C  0.20245492  0.55058709  0.44954100     0.24900
C1492       C  0.17545596  0.53189785  0.44857190    -0.23200
C1493       C  0.16979317  0.50914326  0.45908729     0.19800
C1494       C  0.19126011  0.50427077  0.46999382     0.24900
C1495       C  0.21888296  0.52199417  0.47063532    -0.23100
C1496       C  0.22403150  0.54562940  0.46047967     0.19800
F1497       F  0.25064397  0.56289859  0.46070163    -0.13100
F1498       F  0.20884364  0.57255122  0.43951183    -0.15500
F1499       F  0.18499363  0.48200138  0.47990819    -0.15500
F1500       F  0.14372510  0.49103193  0.45869710    -0.13100
C1501       C  0.83536919  0.44228227  0.38023673     0.24900
C1502       C  0.82317456  0.47124046  0.38487836    -0.23200
C1503       C  0.79296134  0.47992230  0.38056853     0.19800
C1504       C  0.77569741  0.46068334  0.37150806     0.24900
C1505       C  0.78797489  0.43197884  0.36663568    -0.23100
C1506       C  0.81786031  0.42275758  0.37126130     0.19800
F1507       F  0.83020394  0.39481832  0.36716066    -0.13100
F1508       F  0.86429451  0.43285332  0.38427521    -0.15500
F1509       F  0.74680068  0.47036005  0.36755722    -0.15500
F1510       F  0.77994984  0.50728938  0.38502157    -0.13100
C1511       C  0.90694082  0.57434222  0.35997042     0.24900
C1512       C  0.89328998  0.58933231  0.37178755    -0.23200
C1513       C  0.88525079  0.62131762  0.37070825     0.19800
C1514       C  0.89077791  0.63785161  0.35808671     0.24900
C1515       C  0.90436485  0.62266035  0.34632760    -0.23100
C1516       C  0.91249044  0.59082079  0.34745428     0.19800
F1517       F  0.92551417  0.57530442  0.33633838    -0.13100
F1518       F  0.91478827  0.54344951  0.36037713    -0.15500
F1519       F  0.88348739  0.66887590  0.35750659    -0.15500
F1520       F  0.87220013  0.63669415  0.38184693    -0.13100
C1521       C  0.98190268  0.50039938  0.42207574     0.24900
C1522       C  0.96602773  0.52934615  0.42235804    -0.23200
C1523       C  0.98304345  0.55698765  0.42508374     0.19800
C1524       C  0.01552242  0.55615273  0.42577036     0.24900
C1525       C  0.03156304  0.52771780  0.42360150    -0.23100
C1526       C  0.01443219  0.49960550  0.42263123     0.19800
F1527       F  0.02910193  0.47145883  0.42143361    -0.13100
F1528       F  0.96615215  0.47294718  0.42042706    -0.15500
F1529       F  0.03120573  0.58361915  0.42751886    -0.15500
F1530       F  0.96853795  0.58524555  0.42611209    -0.13100
C1531       C  0.66912753  0.40871252  0.47962762     0.24900
C1532       C  0.66566351  0.44090463  0.47644975    -0.23200
C1533       C  0.64472047  0.44968279  0.46563242     0.19800
C1534       C  0.62762100  0.42705425  0.45821880     0.24900
C1535       C  0.63086294  0.39490416  0.46140099    -0.23100
C1536       C  0.65192187  0.38595357  0.47217164     0.19800
F1537       F  0.65629868  0.35516184  0.47537514    -0.13100
F1538       F  0.68928887  0.39911209  0.48987990    -0.15500
F1539       F  0.60806803  0.43685013  0.44776406    -0.15500
F1540       F  0.64084976  0.48031995  0.46203769    -0.13100
C1541       C  0.80753404  0.51538707  0.46577499     0.24900
C1542       C  0.77935873  0.53228750  0.46616370    -0.23200
C1543       C  0.77367424  0.55503139  0.45557964     0.19800
C1544       C  0.79479635  0.55910373  0.44434216     0.24900
C1545       C  0.82182504  0.54044131  0.44351639    -0.23100
C1546       C  0.82837732  0.51934358  0.45460615     0.19800
F1547       F  0.85485778  0.50186375  0.45454842    -0.13100
F1548       F  0.81488908  0.49438509  0.47609666    -0.15500
F1549       F  0.78804256  0.58019026  0.43396941    -0.15500
F1550       F  0.74729025  0.57261865  0.45581882    -0.13100
C1551       C  0.76569384  0.47259268  0.54314409     0.24900
C1552       C  0.77257008  0.49533291  0.53275205    -0.23200
C1553       C  0.80002609  0.51319832  0.53414647     0.19800
C1554       C  0.82017852  0.50839128  0.54559408     0.24900
C1555       C  0.81338083  0.48570925  0.55599656    -0.23100
C1556       C  0.78595150  0.46779579  0.55465795     0.19800
F1557       F  0.77813595  0.44644282  0.56474190    -0.13100
F1558       F  0.73897094  0.45556549  0.54239035    -0.15500
F1559       F  0.84662604  0.52586580  0.54639335    -0.15500
F1560       F  0.80771799  0.53523130  0.52433533    -0.13100
C1561       C  0.34024657  0.59953770  0.51767709     0.24900
C1562       C  0.34280796  0.56730784  0.52089624    -0.23200
C1563       C  0.36510792  0.55781898  0.53101297     0.19800
C1564       C  0.38280519  0.58013788  0.53843645     0.24900
C1565       C  0.37859040  0.61253465  0.53594416    -0.23100
C1566       C  0.35771798  0.62188412  0.52519447     0.19800
F1567       F  0.35356530  0.65276650  0.52213390    -0.13100
F1568       F  0.32026096  0.60967379  0.50746480    -0.15500
F1569       F  0.40358698  0.56988954  0.54829706    -0.15500
F1570       F  0.36968289  0.52688854  0.53386596    -0.13100
C1571       C  0.37439241  0.93386936  0.53998012     0.24900
C1572       C  0.37333119  0.90170709  0.53648159    -0.23200
C1573       C  0.35349858  0.89198463  0.52536153     0.19800
C1574       C  0.33528993  0.91395545  0.51790052     0.24900
C1575       C  0.33643256  0.94618752  0.52140980    -0.23100
C1576       C  0.35617502  0.95575126  0.53259511     0.19800
F1577       F  0.35748558  0.98633891  0.53666932    -0.13100
F1578       F  0.39235287  0.94419713  0.55092808    -0.15500
F1579       F  0.31650971  0.90355721  0.50725809    -0.15500
F1580       F  0.35184702  0.86120932  0.52161018    -0.13100
C1581       C  0.62496063  0.92409898  0.54078257     0.24900
C1582       C  0.62390046  0.89187114  0.53744161    -0.23200
C1583       C  0.64174800  0.88062889  0.52598332     0.19800
C1584       C  0.66006938  0.90120710  0.51798194     0.24900
C1585       C  0.66102525  0.93346632  0.52130463    -0.23100
C1586       C  0.64338941  0.94459820  0.53285448     0.19800
F1587       F  0.64448550  0.97529792  0.53677659    -0.13100
F1588       F  0.60879412  0.93585909  0.55197547    -0.15500
F1589       F  0.67710217  0.88936207  0.50708575    -0.15500
F1590       F  0.64188560  0.84960160  0.52259503    -0.13100
C1591       C  0.61384151  0.58014412  0.53538559     0.24900
C1592       C  0.62211619  0.61205430  0.53663411    -0.23200
C1593       C  0.64707114  0.62356195  0.52846128     0.19800
C1594       C  0.66367470  0.60359319  0.51944110     0.24900
C1595       C  0.65598365  0.57150680  0.51847244    -0.23100
C1596       C  0.63055071  0.56010826  0.52638784     0.19800
F1597       F  0.62212900  0.52938044  0.52567658    -0.13100
F1598       F  0.59017883  0.56796872  0.54319481    -0.15500
F1599       F  0.68793326  0.61565218  0.51198426    -0.15500
F1600       F  0.65587423  0.65415778  0.52931982    -0.13100
C1601       C  0.22379369  0.54191279  0.62744135     0.24900
C1602       C  0.21453064  0.57263982  0.63104374    -0.23200
C1603       C  0.18639668  0.58432018  0.62540720     0.19800
C1604       C  0.16789887  0.56566208  0.61646089     0.24900
C1605       C  0.17694815  0.53476887  0.61302100    -0.23100
C1606       C  0.20523202  0.52319939  0.61858147     0.19800
F1607       F  0.21495514  0.49355663  0.61560261    -0.13100
F1608       F  0.25069620  0.52963442  0.63265053    -0.15500
F1609       F  0.14104235  0.57793758  0.61121288    -0.15500
F1610       F  0.17684801  0.61400943  0.62838737    -0.13100
C1611       C  0.38032509  0.64546221  0.61007396     0.24900
C1612       C  0.36844150  0.66330850  0.59867329    -0.23200
C1613       C  0.33827530  0.67595146  0.59976862     0.19800
C1614       C  0.32027058  0.67059315  0.61185948     0.24900
C1615       C  0.33170137  0.65187948  0.62307973    -0.23100
C1616       C  0.36211964  0.63976193  0.62213129     0.19800
F1617       F  0.37419002  0.62196938  0.63276093    -0.13100
F1618       F  0.40938655  0.63292389  0.60948972    -0.15500
F1619       F  0.29141233  0.68362449  0.61244397    -0.15500
F1620       F  0.32591077  0.69341389  0.58908619    -0.13100
C1621       C  0.19513088  0.92409383  0.62707214     0.24900
C1622       C  0.21850812  0.93717551  0.63575671    -0.23200
C1623       C  0.22243945  0.96991044  0.63613781     0.19800
C1624       C  0.20364690  0.98927128  0.62785098     0.24900
C1625       C  0.18067486  0.97627813  0.61890856    -0.23100
C1626       C  0.17627402  0.94351311  0.61872970     0.19800
F1627       F  0.15436336  0.93014828  0.61021676    -0.13100
F1628       F  0.19129608  0.89246288  0.62622786    -0.15500
F1629       F  0.20785555  0.02084710  0.62871210    -0.15500
F1630       F  0.24436076  0.98332199  0.64463436    -0.13100
C1631       C  0.38290804  0.87875825  0.60992209     0.24900
C1632       C  0.37342903  0.85618542  0.59977625    -0.23200
C1633       C  0.34678270  0.83799211  0.60256075     0.19800
C1634       C  0.33007226  0.84204060  0.61507621     0.24900
C1635       C  0.33902328  0.86484218  0.62511282    -0.23100
C1636       C  0.36574259  0.88310517  0.62249248     0.19800
F1637       F  0.37444672  0.90599299  0.63175311    -0.13100
F1638       F  0.40814368  0.89725142  0.60751803    -0.15500
F1639       F  0.30485478  0.82341893  0.61734261    -0.15500
F1640       F  0.33660277  0.81606743  0.59313960    -0.13100
C1641       C  0.23828327  0.77171240  0.66292630     0.24900
C1642       C  0.26372775  0.78757096  0.66912520    -0.23200
C1643       C  0.28620025  0.77001904  0.67658994     0.19800
C1644       C  0.28531602  0.73710898  0.67630914     0.24900
C1645       C  0.26167172  0.72129034  0.66872387    -0.23100
C1646       C  0.23722285  0.73896265  0.66277310     0.19800
F1647       F  0.21328194  0.72470629  0.65584444    -0.13100
F1648       F  0.21531061  0.78771883  0.65612264    -0.15500
F1649       F  0.30839701  0.72084912  0.68290241    -0.15500
F1650       F  0.30981327  0.78459761  0.68361868    -0.13100
C1651       C  0.19614388  0.38494007  0.72101894     0.24900
C1652       C  0.18631179  0.40987449  0.72981670    -0.23200
C1653       C  0.15409749  0.41484917  0.73155460     0.19800
C1654       C  0.13237148  0.39674714  0.72403063     0.24900
C1655       C  0.14222451  0.37338754  0.71444139    -0.23100
C1656       C  0.17435538  0.36688092  0.71342548     0.19800
F1657       F  0.18488290  0.34358489  0.70481032    -0.13100
F1658       F  0.22691262  0.37825741  0.71954990    -0.15500
F1659       F  0.10158115  0.40278614  0.72589195    -0.15500
F1660       F  0.14341590  0.43804694  0.74016460    -0.13100
C1661       C  0.24348619  0.55830379  0.71351968     0.24900
C1662       C  0.26625075  0.53530203  0.71629601    -0.23200
C1663       C  0.29357080  0.53509094  0.70800710     0.19800
C1664       C  0.29696212  0.55599442  0.69658014     0.24900
C1665       C  0.27292745  0.57722632  0.69313420    -0.23100
C1666       C  0.24663710  0.57874983  0.70204104     0.19800
F1667       F  0.22343799  0.59974473  0.69954600    -0.13100
F1668       F  0.21774011  0.56091548  0.72179949    -0.15500
F1669       F  0.32336910  0.55476945  0.68868671    -0.15500
F1670       F  0.31679537  0.51429863  0.71075926    -0.13100
C1671       C  0.26542993  0.57181133  0.79821382     0.24900
C1672       C  0.23748566  0.57479732  0.80595949    -0.23200
C1673       C  0.21114410  0.55781173  0.80131791     0.19800
C1674       C  0.21285458  0.53794198  0.78943072     0.24900
C1675       C  0.24101639  0.53437001  0.78195095    -0.23100
C1676       C  0.26707125  0.55213117  0.78631529     0.19800
F1677       F  0.29449589  0.55025581  0.77918485    -0.13100
F1678       F  0.29156290  0.58752592  0.80223618    -0.15500
F1679       F  0.18683325  0.52225828  0.78525668    -0.15500
F1680       F  0.18369155  0.56005539  0.80837353    -0.13100
C1681       C  0.21590097  0.73548862  0.82311354     0.24900
C1682       C  0.24191582  0.72071063  0.82934522    -0.23200
C1683       C  0.26752407  0.73921698  0.83354351     0.19800
C1684       C  0.26606159  0.77190132  0.83263853     0.24900
C1685       C  0.23848566  0.78673795  0.82809830    -0.23100
C1686       C  0.21407404  0.76823416  0.82261148     0.19800
F1687       F  0.18743020  0.78167218  0.81771707    -0.13100
F1688       F  0.19124948  0.71840968  0.81835018    -0.15500
F1689       F  0.29082975  0.78897414  0.83728446    -0.15500
F1690       F  0.29308615  0.72599439  0.83960541    -0.13100
C1691       C  0.16011530  0.13827881  0.71697639     0.24900
C1692       C  0.12811057  0.13110352  0.71753437    -0.23200
C1693       C  0.11814782  0.10588574  0.72605329     0.19800
C1694       C  0.13987641  0.08746034  0.73338287     0.24900
C1695       C  0.17202530  0.09356495  0.73212339    -0.23100
C1696       C  0.18181359  0.11951479  0.72403143     0.19800
F1697       F  0.21254160  0.12647788  0.72262321    -0.13100
F1698       F  0.17074640  0.16283021  0.70916127    -0.15500
F1699       F  0.12938587  0.06314825  0.74138339    -0.15500
F1700       F  0.08742994  0.09855222  0.72707354    -0.13100
C1701       C  0.28637102  0.97682271  0.70977154     0.24900
C1702       C  0.26030975  0.97184722  0.71856615    -0.23200
C1703       C  0.24142152  0.94534433  0.71615922     0.19800
C1704       C  0.24718757  0.92549402  0.70466776     0.24900
C1705       C  0.27230756  0.93131940  0.69542638    -0.23100
C1706       C  0.29225460  0.95680810  0.69827682     0.19800
F1707       F  0.31671467  0.96322509  0.68963193    -0.13100
F1708       F  0.30590458  0.00141955  0.71209479    -0.15500
F1709       F  0.22761928  0.90085846  0.70245949    -0.15500
F1710       F  0.21688607  0.93879437  0.72475083    -0.13100
C1711       C  0.25210062  0.96467750  0.79133617     0.24900
C1712       C  0.22521749  0.97607066  0.78456104    -0.23200
C1713       C  0.19575674  0.96565702  0.78917481     0.19800
C1714       C  0.19344795  0.94407235  0.80038951     0.24900
C1715       C  0.22055271  0.93296380  0.80720472    -0.23100
C1716       C  0.24985021  0.94332406  0.80239705     0.19800
F1717       F  0.27675053  0.93299533  0.80841670    -0.13100
F1718       F  0.28094264  0.97451260  0.78741084    -0.15500
F1719       F  0.16482184  0.93399330  0.80448878    -0.15500
F1720       F  0.16929839  0.97590845  0.78273540    -0.13100
C1721       C  0.74654011  0.76206149  0.83600086     0.24900
C1722       C  0.77397886  0.77988659  0.83448825    -0.23200
C1723       C  0.80253703  0.76398388  0.83276202     0.19800
C1724       C  0.80385971  0.73115600  0.83341055     0.24900
C1725       C  0.77661729  0.71344547  0.83566094    -0.23100
C1726       C  0.74784592  0.72925264  0.83657807     0.19800
F1727       F  0.72091731  0.71307344  0.83856452    -0.13100
F1728       F  0.71843831  0.77632783  0.83750356    -0.15500
F1729       F  0.83212802  0.71692995  0.83263733    -0.15500
F1730       F  0.82960781  0.78018066  0.83129814    -0.13100
C1731       C  0.86620729  0.39303415  0.72544973     0.24900
C1732       C  0.85706671  0.37842310  0.71264787    -0.23200
C1733       C  0.82564647  0.38046709  0.70841835     0.19800
C1734       C  0.80391780  0.39652681  0.71670667     0.24900
C1735       C  0.81293884  0.41158075  0.72939349    -0.23100
C1736       C  0.84442775  0.40966874  0.73367950     0.19800
F1737       F  0.85431777  0.42409288  0.74575003    -0.13100
F1738       F  0.89624622  0.39149299  0.72998078    -0.15500
F1739       F  0.77396584  0.39772476  0.71206107    -0.15500
F1740       F  0.81576861  0.36737558  0.69604025    -0.13100
C1741       C  0.78868630  0.51934489  0.79473838     0.24900
C1742       C  0.76573645  0.52617587  0.78449580    -0.23200
C1743       C  0.74918164  0.55468639  0.78559300     0.19800
C1744       C  0.75489022  0.57537368  0.79688952     0.24900
C1745       C  0.77710263  0.56794406  0.80741152    -0.23100
C1746       C  0.79422990  0.53992080  0.80608083     0.19800
F1747       F  0.81540900  0.53159006  0.81612255    -0.13100
F1748       F  0.80509665  0.49212786  0.79410495    -0.15500
F1749       F  0.73840056  0.60257911  0.79757144    -0.15500
F1750       F  0.72730744  0.56261879  0.77577651    -0.13100
C1751       C  0.80113721  0.58594022  0.62863130     0.24900
C1752       C  0.77674163  0.57165318  0.63624917    -0.23200
C1753       C  0.77120663  0.53935465  0.63438667     0.19800
C1754       C  0.78972037  0.52165277  0.62518703     0.24900
C1755       C  0.81435463  0.53579645  0.61766002    -0.23100
C1756       C  0.81980602  0.56817813  0.61945247     0.19800
F1757       F  0.84272768  0.58288859  0.61208842    -0.13100
F1758       F  0.80634710  0.61733290  0.62969599    -0.15500
F1759       F  0.78357370  0.49049722  0.62378167    -0.15500
F1760       F  0.74800334  0.52468707  0.64158617    -0.13100
C1761       C  0.66434404  0.66934340  0.61863915     0.24900
C1762       C  0.65550612  0.64586231  0.62833729    -0.23200
C1763       C  0.62793432  0.62880481  0.62579796     0.19800
C1764       C  0.61065704  0.63387018  0.61330000     0.24900
C1765       C  0.62070856  0.65617127  0.60323241    -0.23100
C1766       C  0.64711245  0.67453836  0.60631849     0.19800
F1767       F  0.65652049  0.69764765  0.59735785    -0.13100
F1768       F  0.69000799  0.68732886  0.62099677    -0.15500
F1769       F  0.58482114  0.61622285  0.61084811    -0.15500
F1770       F  0.61851447  0.60627194  0.63503439    -0.13100
C1771       C  0.69976436  0.54287880  0.69744374     0.24900
C1772       C  0.71506155  0.57218692  0.69759781    -0.23200
C1773       C  0.73385406  0.57992814  0.70935583     0.19800
C1774       C  0.73911676  0.55807677  0.72018879     0.24900
C1775       C  0.72547797  0.52800519  0.71960379    -0.23100
C1776       C  0.70493569  0.52097777  0.70834644     0.19800
F1777       F  0.69094309  0.49240495  0.70752453    -0.13100
F1778       F  0.68111467  0.53469361  0.68637004    -0.15500
F1779       F  0.75767913  0.56642880  0.73127520    -0.15500
F1780       F  0.74736486  0.60870856  0.71034498    -0.13100
C1781       C  0.78643238  0.97139769  0.63445622     0.24900
C1782       C  0.79151010  0.93878931  0.63497170    -0.23200
C1783       C  0.81570137  0.92556194  0.62692507     0.19800
C1784       C  0.83384334  0.94443976  0.61809994     0.24900
C1785       C  0.82809277  0.97689370  0.61716787    -0.23100
C1786       C  0.80460318  0.99032791  0.62565193     0.19800
F1787       F  0.79918772  0.02177885  0.62548504    -0.13100
F1788       F  0.76392686  0.98499948  0.64251276    -0.15500
F1789       F  0.85632933  0.93069115  0.61010427    -0.15500
F1790       F  0.82084756  0.89409304  0.62704556    -0.13100
C1791       C  0.66601930  0.84621507  0.59789840     0.24900
C1792       C  0.63348135  0.84970860  0.59891385    -0.23200
C1793       C  0.62070426  0.86098611  0.61171012     0.19800
C1794       C  0.63997165  0.86807964  0.62329910     0.24900
C1795       C  0.67246553  0.86441214  0.62230976    -0.23100
C1796       C  0.68527834  0.85363278  0.60940976     0.19800
F1797       F  0.71656601  0.85033933  0.60781468    -0.13100
F1798       F  0.67943325  0.83586076  0.58570445    -0.15500
F1799       F  0.62668544  0.87833277  0.63552343    -0.15500
F1800       F  0.58948852  0.86511488  0.61308710    -0.13100
C1801       C  0.71182097  0.77234267  0.67458632     0.24900
C1802       C  0.73566093  0.78695506  0.66672434    -0.23200
C1803       C  0.75864246  0.76801043  0.66037443     0.19800
C1804       C  0.75698499  0.73524500  0.66128869     0.24900
C1805       C  0.73229287  0.72056761  0.66857490    -0.23100
C1806       C  0.71014940  0.73951998  0.67549331     0.19800
F1807       F  0.68629149  0.72632563  0.68282006    -0.13100
F1808       F  0.68952784  0.78976127  0.68110206    -0.15500
F1809       F  0.77856597  0.71794160  0.65422213    -0.15500
F1810       F  0.78182354  0.78100966  0.65253219    -0.13100
C1811       C  0.79817400  0.12099325  0.72441178     0.24900
C1812       C  0.80907497  0.09594829  0.73282892    -0.23200
C1813       C  0.84126847  0.08965895  0.73315718     0.19800
C1814       C  0.86184063  0.10674861  0.72463962     0.24900
C1815       C  0.85080099  0.13087356  0.71571257    -0.23100
C1816       C  0.81881666  0.13831868  0.71597888     0.19800
F1817       F  0.80723033  0.16179038  0.70776653    -0.13100
F1818       F  0.76742538  0.12852647  0.72415531    -0.15500
F1819       F  0.89256416  0.09915082  0.72498370    -0.15500
F1820       F  0.85288757  0.06615842  0.74135011    -0.13100
C1821       C  0.70868418  0.97488812  0.70912659     0.24900
C1822       C  0.73592930  0.97494395  0.71755768    -0.23200
C1823       C  0.76046001  0.95466593  0.71374874     0.19800
C1824       C  0.75813269  0.93525617  0.70180888     0.24900
C1825       C  0.73096482  0.93503062  0.69336707    -0.23100
C1826       C  0.70621373  0.95511075  0.69717569     0.19800
F1827       F  0.67972692  0.95595276  0.68926093    -0.13100
F1828       F  0.68459695  0.99435029  0.71225809    -0.15500
F1829       F  0.78297337  0.91696400  0.69844206    -0.15500
F1830       F  0.78700573  0.95342195  0.72160747    -0.13100
C1831       C  0.79360379  0.97421036  0.79456690     0.24900
C1832       C  0.76702996  0.97206656  0.78572213    -0.23200
C1833       C  0.74507678  0.94833374  0.78851808     0.19800
C1834       C  0.74891305  0.92786767  0.79993939     0.24900
C1835       C  0.77501579  0.93010730  0.80898470    -0.23100
C1836       C  0.79756606  0.95340583  0.80608591     0.19800
F1837       F  0.82312979  0.95650360  0.81450947    -0.13100
F1838       F  0.81553686  0.99663298  0.79223447    -0.15500
F1839       F  0.72639489  0.90605271  0.80221916    -0.15500
F1840       F  0.71927785  0.94496421  0.78027942    -0.13100
C1841       C  0.15027263  0.62692686  0.87886057     0.24900
C1842       C  0.17559561  0.64706492  0.87624462    -0.23200
C1843       C  0.18224348  0.67105202  0.88615589     0.19800
C1844       C  0.16472887  0.67394776  0.89865071     0.24900
C1845       C  0.13985944  0.65321985  0.90142246    -0.23100
C1846       C  0.13246833  0.63012892  0.89122723     0.19800
F1847       F  0.10850312  0.60988234  0.89339438    -0.13100
F1848       F  0.14343486  0.60319238  0.86972769    -0.15500
F1849       F  0.17201368  0.69725068  0.90796166    -0.15500
F1850       F  0.20567335  0.69185125  0.88376170    -0.13100
C1851       C  0.88798900  0.61875521  0.89304334     0.24900
C1852       C  0.87597619  0.63568722  0.90470698    -0.23200
C1853       C  0.84502638  0.64636811  0.90411123     0.19800
C1854       C  0.82686040  0.64133935  0.89205134     0.24900
C1855       C  0.83923180  0.62599329  0.88003931    -0.23100
C1856       C  0.86985440  0.61420293  0.88075433     0.19800
F1857       F  0.88230922  0.59837285  0.86960187    -0.13100
F1858       F  0.91740970  0.60703982  0.89340122    -0.15500
F1859       F  0.79706469  0.65209399  0.89217266    -0.15500
F1860       F  0.83210933  0.66205581  0.91520136    -0.13100
C1861       C  0.84546761  0.82144682  0.89973814     0.24900
C1862       C  0.87179853  0.83981587  0.90313808    -0.23200
C1863       C  0.87968873  0.86498956  0.89409482     0.19800
C1864       C  0.86146671  0.87182561  0.88208022     0.24900
C1865       C  0.83499504  0.85367647  0.87884978    -0.23100
C1866       C  0.82737552  0.82826058  0.88775825     0.19800
F1867       F  0.80248637  0.80959244  0.88480169    -0.13100
F1868       F  0.83704012  0.79672140  0.90798970    -0.15500
F1869       F  0.86921284  0.89680285  0.87385853    -0.15500
F1870       F  0.90485655  0.88330337  0.89692737    -0.13100
C1871       C  0.11790861  0.85929919  0.89063032     0.24900
C1872       C  0.13045012  0.83930963  0.90110112    -0.23200
C1873       C  0.15931252  0.82470302  0.89854419     0.19800
C1874       C  0.17530883  0.83005928  0.88589092     0.24900
C1875       C  0.16304879  0.85047428  0.87549526    -0.23100
C1876       C  0.13404768  0.86483514  0.87795847     0.19800
F1877       F  0.12142413  0.88460825  0.86821521    -0.13100
F1878       F  0.08996137  0.87354270  0.89261470    -0.15500
F1879       F  0.20326697  0.81566201  0.88403148    -0.15500
F1880       F  0.17263637  0.80573763  0.90843502    -0.13100
C1881       C  0.34122904  0.58479722  0.23170514     0.24900
C1882       C  0.30966583  0.58734898  0.22767591    -0.23200
C1883       C  0.30171443  0.60740575  0.21636763     0.19800
C1884       C  0.32473977  0.62440407  0.20923290     0.24900
C1885       C  0.35628091  0.62204748  0.21331918    -0.23100
C1886       C  0.36422453  0.60213772  0.22468356     0.19800
F1887       F  0.39425428  0.59947681  0.22909880    -0.13100
F1888       F  0.35002259  0.56541918  0.24243899    -0.15500
F1889       F  0.31605002  0.64278469  0.19813067    -0.15500
F1890       F  0.27163745  0.61046118  0.21206071    -0.13100
C1891       C  0.67956407  0.61952772  0.21099422     0.24900
C1892       C  0.64742334  0.61422614  0.21303876    -0.23200
C1893       C  0.63825960  0.59011998  0.22238243     0.19800
C1894       C  0.66051634  0.57151776  0.22930849     0.24900
C1895       C  0.69261169  0.57667121  0.22719965    -0.23100
C1896       C  0.70184434  0.60092234  0.21794351     0.19800
F1897       F  0.73251120  0.60660255  0.21548812    -0.13100
F1898       F  0.68963030  0.64251697  0.20213030    -0.15500
F1899       F  0.65045366  0.54808794  0.23793373    -0.15500
F1900       F  0.60762817  0.58416796  0.22475416    -0.13100
C1901       C  0.67175776  0.86414611  0.21403747     0.24900
C1902       C  0.63938833  0.86801159  0.21561892    -0.23200
C1903       C  0.62831105  0.89028729  0.22547682     0.19800
C1904       C  0.64916946  0.90824590  0.23355979     0.24900
C1905       C  0.68153626  0.90488300  0.23169974    -0.23100
C1906       C  0.69255894  0.88238126  0.22195721     0.19800
F1907       F  0.72359398  0.87816623  0.21990845    -0.13100
F1908       F  0.68348516  0.84333258  0.20450527    -0.15500
F1909       F  0.63756136  0.92957635  0.24288878    -0.15500
F1910       F  0.59726843  0.89527634  0.22712246    -0.13100
C1911       C  0.34744017  0.91561325  0.23698790     0.24900
C1912       C  0.31548637  0.91348765  0.23355114    -0.23200
C1913       C  0.30602805  0.89187804  0.22306573     0.19800
C1914       C  0.32782858  0.87291719  0.21618548     0.24900
C1915       C  0.35976470  0.87516824  0.21949911    -0.23100
C1916       C  0.36939028  0.89688112  0.22991492     0.19800
F1917       F  0.40003762  0.90010481  0.23324624    -0.13100
F1918       F  0.35760214  0.93604424  0.24707798    -0.15500
F1919       F  0.31760844  0.85312253  0.20584937    -0.15500
F1920       F  0.27558818  0.88919902  0.21927125    -0.13100
C1921       C  0.36609333  0.39955431  0.77681259     0.24900
C1922       C  0.35483516  0.37693058  0.78645347    -0.23200
C1923       C  0.32247470  0.37179871  0.78727068     0.19800
C1924       C  0.30183504  0.38948240  0.77902043     0.24900
C1925       C  0.31298600  0.41250248  0.76959197    -0.23100
C1926       C  0.34539227  0.41701472  0.76841165     0.19800
F1927       F  0.35710436  0.43915649  0.75952473    -0.13100
F1928       F  0.39711908  0.40533164  0.77568042    -0.15500
F1929       F  0.27078646  0.38415990  0.78040087    -0.15500
F1930       F  0.31053741  0.35013616  0.79632952    -0.13100
C1931       C  0.35828188  0.10281363  0.77606954     0.24900
C1932       C  0.34907202  0.12751587  0.78513447    -0.23200
C1933       C  0.31709063  0.13482037  0.78608293     0.19800
C1934       C  0.29489028  0.11737338  0.77854531     0.24900
C1935       C  0.30402591  0.09236677  0.76973289    -0.23100
C1936       C  0.33602942  0.08566554  0.76833817     0.19800
F1937       F  0.34582060  0.06177274  0.75987235    -0.13100
F1938       F  0.38873483  0.09453072  0.77496190    -0.15500
F1939       F  0.26432159  0.12501908  0.77992179    -0.15500
F1940       F  0.30702705  0.15862687  0.79450637    -0.13100
C1941       C  0.65171614  0.09372221  0.76800627     0.24900
C1942       C  0.68285943  0.09206658  0.77274189    -0.23200
C1943       C  0.69151381  0.10964537  0.78482344     0.19800
C1944       C  0.66946611  0.12761255  0.79219561     0.24900
C1945       C  0.63797416  0.12802097  0.78787943    -0.23100
C1946       C  0.62951367  0.11127265  0.77553706     0.19800
F1947       F  0.59963824  0.11160467  0.77076056    -0.13100
F1948       F  0.64255311  0.07816579  0.75610941    -0.15500
F1949       F  0.67898130  0.14397506  0.80381724    -0.15500
F1950       F  0.72125460  0.10896565  0.78978466    -0.13100
C1951       C  0.62750568  0.39664463  0.77872030     0.24900
C1952       C  0.63652696  0.37018782  0.78671105    -0.23200
C1953       C  0.66787226  0.36033836  0.78604857     0.19800
C1954       C  0.68988602  0.37749255  0.77819590     0.24900
C1955       C  0.68107263  0.40488636  0.77079419    -0.23100
C1956       C  0.64942451  0.41370080  0.77087517     0.19800
F1957       F  0.63962646  0.43954156  0.76370096    -0.13100
F1958       F  0.59753334  0.40684944  0.77883589    -0.15500
F1959       F  0.71990210  0.36740686  0.77800338    -0.15500
F1960       F  0.67741235  0.33426768  0.79312830    -0.13100
C1961       C  0.32300933  0.43166887  0.12439708     0.24900
C1962       C  0.31593056  0.46345247  0.12174685    -0.23200
C1963       C  0.28747497  0.47569644  0.12666176     0.19800
C1964       C  0.26666563  0.45674666  0.13409485     0.24900
C1965       C  0.27374269  0.42504280  0.13684927    -0.23100
C1966       C  0.30211303  0.41263958  0.13187740     0.19800
F1967       F  0.30952754  0.38199566  0.13403652    -0.13100
F1968       F  0.34997311  0.41878778  0.11961595    -0.15500
F1969       F  0.23947873  0.46966620  0.13858508    -0.15500
F1970       F  0.27945586  0.50607993  0.12421785    -0.13100
C1971       C  0.38539934  0.61472028  0.12893174     0.24900
C1972       C  0.40040946  0.58553701  0.12733683    -0.23200
C1973       C  0.42358706  0.57694487  0.13720633     0.19800
C1974       C  0.42925228  0.59534099  0.14918174     0.24900
C1975       C  0.41222166  0.62306883  0.15150949    -0.23100
C1976       C  0.39138092  0.63346014  0.14091210     0.19800
F1977       F  0.37589828  0.66109175  0.14236880    -0.13100
F1978       F  0.36394262  0.62447776  0.11928176    -0.15500
F1979       F  0.45110832  0.58552715  0.15864940    -0.15500
F1980       F  0.44049437  0.55024831  0.13546707    -0.13100
C1981       C  0.69661933  0.41153257  0.12441168     0.24900
C1982       C  0.71875257  0.42536464  0.13350840    -0.23200
C1983       C  0.72211699  0.45822519  0.13358156     0.19800
C1984       C  0.70368501  0.47689714  0.12467836     0.24900
C1985       C  0.68141133  0.46302582  0.11558735    -0.23100
C1986       C  0.67802298  0.43015274  0.11560743     0.19800
F1987       F  0.65715501  0.41583712  0.10687658    -0.13100
F1988       F  0.69380866  0.37979926  0.12359570    -0.15500
F1989       F  0.70738173  0.50858084  0.12514186    -0.15500
F1990       F  0.74296886  0.47234764  0.14239898    -0.13100
C1991       C  0.58692947  0.56214456  0.13782254     0.24900
C1992       C  0.60218691  0.57577949  0.12608402    -0.23200
C1993       C  0.61185103  0.60726505  0.12698849     0.19800
C1994       C  0.60762730  0.62432743  0.13954677     0.24900
C1995       C  0.59324195  0.61040889  0.15142122    -0.23100
C1996       C  0.58244423  0.57927804  0.15031499     0.19800
F1997       F  0.56792174  0.56506320  0.16138644    -0.13100
F1998       F  0.57652504  0.53200104  0.13734382    -0.15500
F1999       F  0.61779927  0.65451345  0.14004948    -0.15500
F2000       F  0.62589715  0.62150839  0.11581176    -0.13100
C2001       C  0.51441040  0.48253343  0.08991205     0.24900
C2002       C  0.52996138  0.50718259  0.08291773    -0.23200
C2003       C  0.51220091  0.53026388  0.07590317     0.19800
C2004       C  0.47963060  0.52963449  0.07653770     0.24900
C2005       C  0.46423618  0.50630483  0.08446116    -0.23100
C2006       C  0.48193402  0.48208608  0.09066648     0.19800
F2007       F  0.46805139  0.45898940  0.09833033    -0.13100
F2008       F  0.53057661  0.46009428  0.09704509    -0.15500
F2009       F  0.46330561  0.55279369  0.06996939    -0.15500
F2010       F  0.52630064  0.55431618  0.06896730    -0.13100
C2011       C  0.88362892  0.41070107  0.03138671     0.24900
C2012       C  0.87335141  0.37925114  0.03157909    -0.23200
C2013       C  0.84556822  0.37135487  0.02442690     0.19800
C2014       C  0.82785593  0.39458660  0.01772401     0.24900
C2015       C  0.83750404  0.42617788  0.01808888    -0.23100
C2016       C  0.86590678  0.43387805  0.02469632     0.19800
F2017       F  0.87654367  0.46394391  0.02477810    -0.13100
F2018       F  0.91045001  0.41936634  0.03800646    -0.15500
F2019       F  0.80061781  0.38625044  0.01137590    -0.15500
F2020       F  0.83480167  0.34134899  0.02434682    -0.13100
C2021       C  0.85599551  0.54858621  0.96774938     0.24900
C2022       C  0.84552688  0.55612774  0.98147613    -0.23200
C2023       C  0.85524286  0.58453236  0.98777705     0.19800
C2024       C  0.87440796  0.60538756  0.98026936     0.24900
C2025       C  0.88448043  0.59784933  0.96647109    -0.23100
C2026       C  0.87523445  0.56919462  0.96034851     0.19800
F2027       F  0.88329132  0.56187720  0.94680076    -0.13100
F2028       F  0.84643291  0.52186063  0.96114645    -0.15500
F2029       F  0.88316074  0.63282300  0.98648606    -0.15500
F2030       F  0.84631549  0.59205735  0.00118574    -0.13100
C2031       C  0.69302645  0.49455887  0.03383295     0.24900
C2032       C  0.71927495  0.51422488  0.03268550    -0.23200
C2033       C  0.72259850  0.53934743  0.04234552     0.19800
C2034       C  0.70086025  0.54368611  0.05331731     0.24900
C2035       C  0.67549772  0.52290443  0.05484100    -0.23100
C2036       C  0.67139661  0.49895044  0.04468431     0.19800
F2037       F  0.64662675  0.47913903  0.04536372    -0.13100
F2038       F  0.68832999  0.47055149  0.02455165    -0.15500
F2039       F  0.70543724  0.56737466  0.06276773    -0.15500
F2040       F  0.74744130  0.55903627  0.04152241    -0.13100
C2041       C  0.15733534  0.39398569  0.01876000     0.24900
C2042       C  0.15415144  0.42634473  0.02151361    -0.23200
C2043       C  0.13083646  0.43644621  0.03096029     0.19800
C2044       C  0.11212176  0.41458469  0.03800784     0.24900
C2045       C  0.11645519  0.38212909  0.03583091    -0.23100
C2046       C  0.13877478  0.37212473  0.02587246     0.19800
F2047       F  0.14326551  0.34109173  0.02321181    -0.13100
F2048       F  0.17919221  0.38325360  0.00954505    -0.15500
F2049       F  0.09049572  0.42530213  0.04733627    -0.15500
F2050       F  0.12644543  0.46749639  0.03362873    -0.13100
C2051       C  0.14465604  0.60661432  0.97765610     0.24900
C2052       C  0.12837461  0.59685588  0.96540845    -0.23200
C2053       C  0.12777930  0.56456802  0.96206573     0.19800
C2054       C  0.14417995  0.54284537  0.97039436     0.24900
C2055       C  0.16176414  0.55285261  0.98223715    -0.23100
C2056       C  0.16123486  0.58492424  0.98592944     0.19800
F2057       F  0.17725725  0.59556038  0.99742228    -0.13100
F2058       F  0.14473980  0.63727713  0.98164557    -0.15500
F2059       F  0.14300372  0.51198934  0.96672776    -0.15500
F2060       F  0.11192558  0.55392333  0.95051942    -0.13100
C2061       C  0.27847221  0.53171330  0.04578238     0.24900
C2062       C  0.27645709  0.50241209  0.03886662    -0.23200
C2063       C  0.29564152  0.47766944  0.04359263     0.19800
C2064       C  0.31615260  0.48209482  0.05497327     0.24900
C2065       C  0.31791311  0.51132653  0.06200337    -0.23100
C2066       C  0.29876577  0.53604424  0.05729112     0.19800
F2067       F  0.29941809  0.56444476  0.06386196    -0.13100
F2068       F  0.26076987  0.55633089  0.04144191    -0.15500
F2069       F  0.33411530  0.45747495  0.05914173    -0.15500
F2070       F  0.29473015  0.44902411  0.03722180    -0.13100
C2071       C  0.33225031  0.56324637  0.88469169     0.24900
C2072       C  0.32057147  0.53314695  0.88794084    -0.23200
C2073       C  0.29326381  0.52266362  0.88113083     0.19800
C2074       C  0.27785774  0.54178264  0.87140852     0.24900
C2075       C  0.28912294  0.57206547  0.86831497    -0.23100
C2076       C  0.31661319  0.58257230  0.87498381     0.19800
F2077       F  0.32827793  0.61159723  0.87223817    -0.13100
F2078       F  0.35898625  0.57392624  0.89075582    -0.15500
F2079       F  0.25187984  0.53033163  0.86494945    -0.15500
F2080       F  0.28139980  0.49364861  0.88372351    -0.13100
C2081       C  0.38330425  0.38109049  0.87706301     0.24900
C2082       C  0.38339576  0.41410166  0.87684266    -0.23200
C2083       C  0.38732408  0.42971181  0.86379556     0.19800
C2084       C  0.39194619  0.41278346  0.85129127     0.24900
C2085       C  0.39295164  0.37977568  0.85149565    -0.23100
C2086       C  0.38805750  0.36402985  0.86448136     0.19800
F2087       F  0.38889071  0.33217910  0.86511254    -0.13100
F2088       F  0.37978303  0.36536824  0.88949760    -0.15500
F2089       F  0.39516015  0.42886655  0.83893299    -0.15500
F2090       F  0.38635465  0.46158281  0.86306624    -0.13100
C2091       C  0.32779973  0.49024334  0.95999531     0.24900
C2092       C  0.32267916  0.46666001  0.94973439    -0.23200
C2093       C  0.29886189  0.44449689  0.95202452     0.19800
C2094       C  0.27930128  0.44715796  0.96383954     0.24900
C2095       C  0.28321469  0.47201875  0.97356413    -0.23100
C2096       C  0.30837666  0.49280371  0.97179635     0.19800
F2097       F  0.31390464  0.51614319  0.98133248    -0.13100
F2098       F  0.35116188  0.51150756  0.95847013    -0.15500
F2099       F  0.25562812  0.42625038  0.96535492    -0.15500
F2100       F  0.29345579  0.42110709  0.94251325    -0.13100
C2101       C  0.67572638  0.56509212  0.88487716     0.24900
C2102       C  0.67903652  0.53230727  0.88595823    -0.23200
C2103       C  0.70202109  0.51708798  0.87780509     0.19800
C2104       C  0.72112028  0.53415317  0.86871465     0.24900
C2105       C  0.71784084  0.56687855  0.86758828    -0.23100
C2106       C  0.69499067  0.58224615  0.87575461     0.19800
F2107       F  0.69191901  0.61398454  0.87526629    -0.13100
F2108       F  0.65440959  0.58067580  0.89285641    -0.15500
F2109       F  0.74274148  0.51844607  0.86094690    -0.15500
F2110       F  0.70592655  0.48545074  0.87844909    -0.13100
C2111       C  0.60241145  0.38619877  0.87622822     0.24900
C2112       C  0.60166964  0.41917797  0.87549604    -0.23200
C2113       C  0.59432263  0.43357189  0.86244846     0.19800
C2114       C  0.58853583  0.41545684  0.85034062     0.24900
C2115       C  0.58999773  0.38243577  0.85093856    -0.23100
C2116       C  0.59647808  0.36799213  0.86409445     0.19800
F2117       F  0.59659476  0.33621456  0.86532001    -0.13100
F2118       F  0.60824622  0.37151141  0.88874922    -0.15500
F2119       F  0.58169669  0.43045547  0.83799869    -0.15500
F2120       F  0.59330548  0.46536624  0.86127171    -0.13100
C2121       C  0.70720273  0.46074605  0.94432539     0.24900
C2122       C  0.67759731  0.47476985  0.94526591    -0.23200
C2123       C  0.66985816  0.49214017  0.95746073     0.19800
C2124       C  0.69146443  0.49581463  0.96844124     0.24900
C2125       C  0.72133652  0.48253455  0.96736069    -0.23100
C2126       C  0.72892111  0.46454798  0.95531532     0.19800
F2127       F  0.75777372  0.45184493  0.95388338    -0.13100
F2128       F  0.71576809  0.44494222  0.93241835    -0.15500
F2129       F  0.68300101  0.51203162  0.98025107    -0.15500
F2130       F  0.64133209  0.50563330  0.95876011    -0.13100
C2131       C  0.51436523  0.45087704  0.92502536     0.24900
C2132       C  0.53009962  0.47925482  0.92220960    -0.23200
C2133       C  0.51263454  0.50695765  0.92053000     0.19800
C2134       C  0.48013563  0.50586680  0.92039667     0.24900
C2135       C  0.46440148  0.47709723  0.92212698    -0.23100
C2136       C  0.48182044  0.44982007  0.92499095     0.19800
F2137       F  0.46752825  0.42165615  0.92688077    -0.13100
F2138       F  0.53032585  0.42365483  0.92694365    -0.15500
F2139       F  0.46418521  0.53286313  0.91790144    -0.15500
F2140       F  0.52691898  0.53500519  0.91833402    -0.13100
C2141       C  0.68718522  0.91501613  0.87465709     0.24900
C2142       C  0.71510822  0.92722483  0.86908664    -0.23200
C2143       C  0.72385909  0.95814448  0.87260306     0.19800
C2144       C  0.70523561  0.97648680  0.88141578     0.24900
C2145       C  0.67715046  0.96453738  0.88689175    -0.23100
C2146       C  0.66841500  0.93349005  0.88351794     0.19800
F2147       F  0.64178833  0.92089499  0.88881376    -0.13100
F2148       F  0.67819110  0.88510479  0.87172469    -0.15500
F2149       F  0.71481012  0.00616917  0.88445809    -0.15500
F2150       F  0.75047308  0.97099266  0.86741471    -0.13100
C2151       C  0.58664267  0.06913628  0.86337887     0.24900
C2152       C  0.60217640  0.08255406  0.87514272    -0.23200
C2153       C  0.61039101  0.11454762  0.87459533     0.19800
C2154       C  0.60358040  0.13249342  0.86247125     0.24900
C2155       C  0.58850193  0.11877723  0.85064031    -0.23100
C2156       C  0.57993372  0.08695160  0.85133412     0.19800
F2157       F  0.56511355  0.07273029  0.84030365    -0.13100
F2158       F  0.57774336  0.03850648  0.86343040    -0.15500
F2159       F  0.61177251  0.16331376  0.86235340    -0.15500
F2160       F  0.62512663  0.12850945  0.88571598    -0.13100
C2161       C  0.26059858  0.96073377  0.87374259     0.24900
C2162       C  0.27186368  0.93115233  0.86946572    -0.23200
C2163       C  0.30086931  0.92078003  0.87463991     0.19800
C2164       C  0.31890821  0.94020133  0.88334375     0.24900
C2165       C  0.30841517  0.97049987  0.88695415    -0.23100
C2166       C  0.27873326  0.98024928  0.88235123     0.19800
F2167       F  0.26727506  0.00887771  0.88599952    -0.13100
F2168       F  0.23226120  0.97120771  0.86937866    -0.15500
F2169       F  0.34690295  0.92942616  0.88800674    -0.15500
F2170       F  0.31194380  0.89183547  0.87127066    -0.13100
C2171       C  0.41223668  0.09649554  0.85175495     0.24900
C2172       C  0.39783182  0.12571383  0.84954106    -0.23200
C2173       C  0.37850701  0.13812498  0.86026493     0.19800
C2174       C  0.37229891  0.12071150  0.87257645     0.24900
C2175       C  0.38542988  0.09069909  0.87437897    -0.23100
C2176       C  0.40599528  0.07915294  0.86395189     0.19800
F2177       F  0.42016692  0.05081688  0.86546361    -0.13100
F2178       F  0.43246840  0.08447321  0.84209756    -0.15500
F2179       F  0.35271146  0.13282766  0.88246889    -0.15500
F2180       F  0.36507080  0.16680869  0.85874052    -0.13100
C2181       C  0.47742128  0.04893960  0.92127141     0.24900
C2182       C  0.45987378  0.02252235  0.91712575    -0.23200
C2183       C  0.47559107  0.99431456  0.91395648     0.19800
C2184       C  0.50814796  0.99292939  0.91443130     0.24900
C2185       C  0.52572233  0.01977296  0.91799711    -0.23100
C2186       C  0.50992292  0.04754138  0.92176457     0.19800
F2187       F  0.52588457  0.07401798  0.92525097    -0.13100
F2188       F  0.46332706  0.07678540  0.92413806    -0.15500
F2189       F  0.52239716  0.96556918  0.91084086    -0.15500
F2190       F  0.45961399  0.96829750  0.90981366    -0.13100
C2191       C  0.84887785  0.10244355  0.02589839     0.24900
C2192       C  0.87192430  0.09208941  0.03550520    -0.23200
C2193       C  0.87546631  0.05954044  0.03770855     0.19800
C2194       C  0.85627611  0.03797163  0.03060899     0.24900
C2195       C  0.83289513  0.04835156  0.02120413    -0.23100
C2196       C  0.82950226  0.08087135  0.01889955     0.19800
F2197       F  0.80695340  0.09200385  0.01010071    -0.13100
F2198       F  0.84463740  0.13356922  0.02339642    -0.15500
F2199       F  0.86076291  0.00681757  0.03293077    -0.15500
F2200       F  0.89729455  0.04840045  0.04686981    -0.13100
C2201       C  0.86286423  0.92946739  0.97524252     0.24900
C2202       C  0.83461038  0.91920108  0.98124010    -0.23200
C2203       C  0.82688491  0.88708998  0.98030711     0.19800
C2204       C  0.84644350  0.86598388  0.97313022     0.24900
C2205       C  0.87431961  0.87645869  0.96678508    -0.23100
C2206       C  0.88251331  0.90837763  0.96818352     0.19800
F2207       F  0.90932086  0.91953011  0.96244597    -0.13100
F2208       F  0.87155288  0.96009562  0.97610881    -0.15500
F2209       F  0.83751700  0.83545543  0.97206653    -0.15500
F2210       F  0.79983186  0.87618827  0.98590958    -0.13100
C2211       C  0.69928056  0.03628498  0.94728766     0.24900
C2212       C  0.66990214  0.02169419  0.94670189    -0.23200
C2213       C  0.66100761  0.00155981  0.95782442     0.19800
C2214       C  0.68173373  0.99478877  0.96890836     0.24900
C2215       C  0.71186633  0.00795092  0.96905754    -0.23100
C2216       C  0.72007761  0.02942795  0.95833761     0.19800
F2217       F  0.74884755  0.04270192  0.95814212    -0.13100
F2218       F  0.70871628  0.05569165  0.93670346    -0.15500
F2219       F  0.67228769  0.97520898  0.97943654    -0.15500
F2220       F  0.63230168  0.98807664  0.95787709    -0.13100
C2221       C  0.32530337  0.05242285  0.12488820     0.24900
C2222       C  0.31403401  0.02390257  0.11929507    -0.23200
C2223       C  0.28358798  0.01423885  0.12275425     0.19800
C2224       C  0.26469480  0.03293038  0.13137485     0.24900
C2225       C  0.27566324  0.06190886  0.13665594    -0.23100
C2226       C  0.30628995  0.07127806  0.13341823     0.19800
F2227       F  0.31800881  0.09870794  0.13851348    -0.13100
F2228       F  0.35492580  0.06199817  0.12228373    -0.15500
F2229       F  0.23552304  0.02258227  0.13443469    -0.15500
F2230       F  0.27188566  0.98664303  0.11780087    -0.13100
C2231       C  0.37853142  0.87882975  0.13341005     0.24900
C2232       C  0.38662790  0.91080794  0.13261108    -0.23200
C2233       C  0.39945569  0.92563184  0.14468349     0.19800
C2234       C  0.40465739  0.90879258  0.15712844     0.24900
C2235       C  0.39734665  0.87665378  0.15784555    -0.23100
C2236       C  0.38373173  0.86191595  0.14593787     0.19800
F2237       F  0.37587549  0.83101761  0.14629161    -0.13100
F2238       F  0.36580596  0.86379165  0.12206634    -0.15500
F2239       F  0.41694972  0.92416346  0.16848985    -0.15500
F2240       F  0.40725418  0.95656662  0.14452912    -0.13100
C2241       C  0.67000135  0.05148470  0.12068014     0.24900
C2242       C  0.68176430  0.02432829  0.11408372    -0.23200
C2243       C  0.71322501  0.01618457  0.11602778     0.19800
C2244       C  0.73240124  0.03435335  0.12469183     0.24900
C2245       C  0.72044282  0.06090798  0.13171019    -0.23100
C2246       C  0.68913627  0.06954413  0.12949713     0.19800
F2247       F  0.67678944  0.09513164  0.13602580    -0.13100
F2248       F  0.63970971  0.06000009  0.11903098    -0.15500
F2249       F  0.76272691  0.02579758  0.12617313    -0.15500
F2250       F  0.72556829  0.99051542  0.10956487    -0.13100
C2251       C  0.59692598  0.92146948  0.14107759     0.24900
C2252       C  0.60822499  0.90734789  0.12856485    -0.23200
C2253       C  0.61393250  0.87479478  0.12847003     0.19800
C2254       C  0.60843982  0.85676781  0.14064358     0.24900
C2255       C  0.59705782  0.87098411  0.15311369    -0.23100
C2256       C  0.59139587  0.90351480  0.15317003     0.19800
F2257       F  0.58072064  0.91823712  0.16500504    -0.13100
F2258       F  0.59119837  0.95282672  0.14172786    -0.15500
F2259       F  0.61373773  0.82534093  0.14010478    -0.15500
F2260       F  0.62453039  0.86027907  0.11657547    -0.13100
C2261       C  0.69671613  0.93720974  0.05431340     0.24900
C2262       C  0.67172029  0.95825982  0.05609440    -0.23200
C2263       C  0.66679177  0.98180782  0.04586780     0.19800
C2264       C  0.68754707  0.98567923  0.03467450     0.24900
C2265       C  0.71367339  0.96596407  0.03333838    -0.23100
C2266       C  0.71767449  0.94115875  0.04305894     0.19800
F2267       F  0.74259168  0.92162869  0.04209058    -0.13100
F2268       F  0.70172730  0.91369032  0.06378018    -0.15500
F2269       F  0.68215903  0.00918748  0.02524163    -0.15500
F2270       F  0.64218746  0.00176561  0.04683493    -0.13100
C2271       C  0.51356475  0.99737428  0.08526215     0.24900
C2272       C  0.53000289  0.96890489  0.08404728    -0.23200
C2273       C  0.51323218  0.94072292  0.08242880     0.19800
C2274       C  0.48081795  0.94063817  0.08333601     0.24900
C2275       C  0.46441539  0.96880604  0.08569817    -0.23100
C2276       C  0.48103174  0.99733886  0.08604826     0.19800
F2277       F  0.46599669  0.02515437  0.08773368    -0.13100
F2278       F  0.52895986  0.02519013  0.08623003    -0.15500
F2279       F  0.46575450  0.91260391  0.08266759    -0.15500
F2280       F  0.52818247  0.91281098  0.08086279    -0.13100
C2281       C  0.13647914  0.04307253  0.02883154     0.24900
C2282       C  0.16245247  0.05340863  0.02101393    -0.23200
C2283       C  0.16759340  0.08592812  0.01954266     0.19800
C2284       C  0.14819290  0.10754562  0.02634569     0.24900
C2285       C  0.12325355  0.09715580  0.03480601    -0.23100
C2286       C  0.11712252  0.06469851  0.03567059     0.19800
F2287       F  0.09291614  0.05366109  0.04348126    -0.13100
F2288       F  0.13000496  0.01196965  0.03011441    -0.15500
F2289       F  0.15438440  0.13866732  0.02488520    -0.15500
F2290       F  0.19180809  0.09698906  0.01174850    -0.13100
C2291       C  0.15519449  0.87039426  0.97461530     0.24900
C2292       C  0.13194950  0.88123833  0.96521792    -0.23200
C2293       C  0.12753177  0.91383465  0.96374801     0.19800
C2294       C  0.14603976  0.93507338  0.97130894     0.24900
C2295       C  0.16928706  0.92434497  0.98070470    -0.23100
C2296       C  0.17355022  0.89172645  0.98234220     0.19800
F2297       F  0.19558908  0.88036724  0.99134986    -0.13100
F2298       F  0.16022459  0.83914203  0.97636870    -0.15500
F2299       F  0.14127925  0.96628167  0.96924192    -0.15500
F2300       F  0.10577376  0.92540838  0.95466251    -0.13100
C2301       C  0.28989472  0.04530894  0.94767399     0.24900
C2302       C  0.31888795  0.03029087  0.94610694    -0.23200
C2303       C  0.32921135  0.00966369  0.95678919     0.19800
C2304       C  0.31029707  0.00277260  0.96839449     0.24900
C2305       C  0.28067193  0.01654519  0.96965439    -0.23100
C2306       C  0.27098034  0.03859799  0.95940998     0.19800
F2307       F  0.24255769  0.05246214  0.96035039    -0.13100
F2308       F  0.27897338  0.06492059  0.93744794    -0.15500
F2309       F  0.32097385  0.98232124  0.97834208    -0.15500
F2310       F  0.35754824  0.99560644  0.95587809    -0.13100
C2311       C  0.33270919  0.97982386  0.04779675     0.24900
C2312       C  0.32417231  0.95975157  0.05898884    -0.23200
C2313       C  0.29632475  0.94245821  0.05788075     0.19800
C2314       C  0.27620429  0.94708513  0.04632714     0.24900
C2315       C  0.28377947  0.96884765  0.03561440    -0.23100
C2316       C  0.31277222  0.98432206  0.03624743     0.19800
F2317       F  0.32176095  0.00433754  0.02580387    -0.13100
F2318       F  0.36019281  0.99567672  0.04813188    -0.15500
F2319       F  0.24876952  0.93120187  0.04596655    -0.15500
F2320       F  0.28769847  0.92233400  0.06833646    -0.13100
loop_ 
_geom_bond_atom_site_label_1 
_geom_bond_atom_site_label_2 
_geom_bond_distance 
_geom_bond_site_symmetry_2 
_ccdc_geom_bond_type 
In1           O3   2.231   1_554  S
In1           O4   2.245   1_564  S
In1          O12   2.231   1_554  S
In1           O6   2.260   1_554  S
In1           O8   2.260       .  S
In1           O9   2.238   1_565  S
In1          O10   2.232       .  S
In1          O13   2.246   1_565  S
C2            O8   1.261       .  A
C2           O10   1.258       .  A
C2         C2315   1.482       .  S
O3           C11   1.261   1_565  A
O4           C11   1.261       .  A
C5           O12   1.258       .  A
C5            O6   1.261       .  A
C5         C2295   1.484       .  S
C7            O9   1.259       .  A
C7           O13   1.260       .  A
C7         C2282   1.481       .  S
C11        C2305   1.477       .  S
In14         O16   2.209       .  S
In14         O17   2.233   1_565  S
In14         O25   2.204       .  S
In14         O19   2.250       .  S
In14         O21   2.250       .  S
In14         O22   2.229       .  S
In14         O23   2.207       .  S
In14         O26   2.216       .  S
C15          O21   1.266       .  A
C15          O23   1.259       .  A
C15        C2252   1.479       .  S
O16          C24   1.261   1_565  A
O17          C24   1.264       .  A
C18          O25   1.260       .  A
C18          O19   1.265       .  A
C18        C2262   1.477       .  S
C20          O22   1.263       .  A
C20          O26   1.262       .  A
C20        C2272   1.475       .  S
C24        C2242   1.469       .  S
In27         O29   2.218       .  S
In27         O30   2.236       .  S
In27         O38   2.215       .  S
In27         O32   2.252       .  S
In27         O34   2.253       .  S
In27         O35   2.240   1_565  S
In27         O36   2.198       .  S
In27         O39   2.223       .  S
C28          O34   1.268       .  A
C28          O36   1.259       .  A
C28        C2232   1.478       .  S
O29          C37   1.263       .  A
O30          C37   1.265       .  A
C31          O38   1.261       .  A
C31          O32   1.266       .  A
C31        C2312   1.478       .  S
C33          O35   1.265       .  A
C33          O39   1.261   1_545  A
C33        C2222   1.481       .  S
C37        C2275   1.478       .  S
In40         O42   2.252   1_554  S
In40         O43   2.265   1_554  S
In40         O51   2.251       .  S
In40         O45   2.254   1_565  S
In40         O47   2.251   1_564  S
In40         O48   2.256       .  S
In40         O49   2.255   1_554  S
In40         O52   2.218       .  S
C41          O47   1.260   1_565  A
C41          O49   1.259       .  A
C41        C2215   1.483   1_565  S
O42          C50   1.259       .  A
O43          C50   1.260       .  A
C44          O51   1.261   1_545  A
C44          O45   1.261       .  A
C44        C2195   1.487       .  S
C46          O48   1.263       .  A
C46          O52   1.260       .  A
C46        C2265   1.478       .  S
C50        C2202   1.488       .  S
In53         O55   2.235       .  S
In53         O56   2.228       .  S
In53         O64   2.207       .  S
In53         O58   2.267       .  S
In53         O60   2.272       .  S
In53         O61   2.227   1_545  S
In53         O62   2.198       .  S
In53         O65   2.228       .  S
C54          O60   1.268       .  A
C54          O62   1.258       .  A
C54        C2175   1.481       .  S
O55          C63   1.264       .  A
O56          C63   1.262       .  A
C57          O64   1.259       .  A
C57          O58   1.266       .  A
C57        C2302   1.477       .  S
C59          O61   1.262       .  A
C59          O65   1.262   1_565  A
C59        C2165   1.476       .  S
C63        C2182   1.481       .  S
In66         O68   2.217       .  S
In66         O69   2.244   1_545  S
In66         O77   2.223       .  S
In66         O71   2.256       .  S
In66         O73   2.279       .  S
In66         O74   2.235   1_545  S
In66         O75   2.198       .  S
In66         O78   2.227       .  S
C67          O73   1.269       .  A
C67          O75   1.258       .  A
C67        C2152   1.486       .  S
O68          C76   1.262   1_545  A
O69          C76   1.264       .  A
C70          O77   1.261       .  A
C70          O71   1.266       .  A
C70        C2212   1.479       .  S
C72          O74   1.264   1_545  A
C72          O78   1.263       .  A
C72        C2185   1.481       .  S
C76        C2145   1.480       .  S
In79         O81   2.222       .  S
In79         O82   2.225       .  S
In79         O90   2.222       .  S
In79         O84   2.242       .  S
In79         O86   2.255       .  S
In79         O87   2.255       .  S
In79         O88   2.215       .  S
In79         O91   2.197       .  S
C80          O86   1.268       .  A
C80          O88   1.261       .  A
C80        C2112   1.481       .  S
O81          C89   1.263       .  A
O82          C89   1.266       .  A
C83          O90   1.261       .  A
C83          O84   1.265       .  A
C83        C2122   1.473       .  S
C85          O87   1.266       .  A
C85          O91   1.259       .  A
C85        C2102   1.475       .  S
C89        C2132   1.478       .  S
In92         O94   2.221       .  S
In92         O95   2.243       .  S
In92        O103   2.218       .  S
In92         O97   2.258       .  S
In92         O99   2.267       .  S
In92        O100   2.218       .  S
In92        O101   2.202       .  S
In92        O104   2.236       .  S
C93          O99   1.267       .  A
C93         O101   1.258       .  A
C93        C2082   1.477       .  S
O94         C102   1.261       .  A
O95         C102   1.262       .  A
C96         O103   1.259       .  A
C96          O97   1.264       .  A
C96        C2092   1.480       .  S
C98         O100   1.261       .  A
C98         O104   1.263       .  A
C98        C2135   1.477       .  S
C102       C2072   1.478       .  S
In105       O107   2.231   1_554  S
In105       O108   2.240   1_554  S
In105       O116   2.241       .  S
In105       O110   2.250       .  S
In105       O112   2.259       .  S
In105       O113   2.234       .  S
In105       O114   2.247   1_554  S
In105       O117   2.242       .  S
C106        O112   1.262   1_556  A
C106        O114   1.260       .  A
C106       C2055   1.489       .  S
O107        C115   1.261       .  A
O108        C115   1.261       .  A
C109        O116   1.260       .  A
C109        O110   1.263       .  A
C109       C2062   1.484       .  S
C111        O113   1.260       .  A
C111        O117   1.261       .  A
C111       C2042   1.479       .  S
C115       C2095   1.477       .  S
In118       O120   2.224   1_554  S
In118       O121   2.255   1_554  S
In118       O129   2.233   1_554  S
In118       O123   2.247   1_554  S
In118       O125   2.237       .  S
In118       O126   2.266       .  S
In118       O127   2.237       .  S
In118       O130   2.226       .  S
C119        O125   1.259       .  A
C119        O127   1.260       .  A
C119       C2015   1.475       .  S
O120        C128   1.259       .  A
O121        C128   1.262       .  A
C122        O129   1.261       .  A
C122        O123   1.260       .  A
C122       C2125   1.473       .  S
C124        O126   1.262       .  A
C124        O130   1.259       .  A
C124       C2032   1.485       .  S
C128       C2022   1.476       .  S
In131       O133   2.241       .  S
In131       O134   2.227       .  S
In131       O142   2.220       .  S
In131       O136   2.271       .  S
In131       O138   2.257       .  S
In131       O139   2.240       .  S
In131       O140   2.207       .  S
In131       O143   2.235       .  S
C132        O138   1.269       .  A
C132        O140   1.258       .  A
C132       C1992   1.481       .  S
O133        C141   1.264       .  A
O134        C141   1.263       .  A
C135        O142   1.260       .  A
C135        O136   1.265       .  A
C135       C2035   1.486       .  S
C137        O139   1.264       .  A
C137        O143   1.261       .  A
C137       C1985   1.480       .  S
C141       C2002   1.480       .  S
In144       O146   2.209       .  S
In144       O147   2.269       .  S
In144       O155   2.232       .  S
In144       O149   2.222       .  S
In144       O151   2.238       .  S
In144       O152   2.256       .  S
In144       O153   2.224       .  S
In144       O156   2.214       .  S
C145        O151   1.263       .  A
C145        O153   1.262       .  A
C145       C1962   1.479       .  S
O146        C154   1.259       .  A
O147        C154   1.267       .  A
C148        O155   1.264       .  A
C148        O149   1.263       .  A
C148       C2005   1.479       .  S
C150        O152   1.267       .  A
C150        O156   1.259       .  A
C150       C2065   1.483       .  S
C154       C1972   1.481       .  S
In157       O159   2.256       .  S
In157       O160   2.243       .  S
In157       O168   2.267       .  S
In157       O162   2.253       .  S
In157       O164   2.270       .  S
In157       O165   2.256       .  S
In157       O166   2.238       .  S
In157       O169   2.246       .  S
C158        O164   1.262       .  A
C158        O166   1.257       .  A
C158        C197   1.466       .  S
O159        C167   1.261       .  A
O160        C167   1.260       .  A
C161        O168   1.262       .  A
C161        O162   1.261       .  A
C161       C1952   1.492       .  S
C163        O165   1.261       .  A
C163        O169   1.260       .  A
C163       C2115   1.486       .  S
C167        C176   1.466       .  S
In170       O172   2.251       .  S
In170       O173   2.246       .  S
In170       O181   2.253       .  S
In170       O175   2.272       .  S
In170       O177   2.237       .  S
In170       O178   2.242       .  S
In170       O179   2.277       .  S
In170       O182   2.262       .  S
C171        O177   1.260       .  A
C171        O179   1.262       .  A
C171        C184   1.470       .  S
O172        C180   1.263       .  A
O173        C180   1.259       .  A
C174        O181   1.259       .  A
C174        O175   1.262       .  A
C174       C1945   1.492       .  S
C176        O178   1.258       .  A
C176        O182   1.261       .  A
C180       C2155   1.486       .  S
In183       O185   2.265       .  S
In183       O186   2.232       .  S
In183       O194   2.253       .  S
In183       O188   2.273       .  S
In183       O190   2.233       .  S
In183       O191   2.247       .  S
In183       O192   2.276       .  S
In183       O195   2.236       .  S
C184        O190   1.257       .  A
C184        O192   1.265       .  A
O185        C193   1.263       .  A
O186        C193   1.257       .  A
C187        O194   1.258       .  A
C187        O188   1.260       .  A
C187       C1932   1.490       .  S
C189        O191   1.258       .  A
C189        O195   1.260       .  A
C189       C2172   1.479       .  S
C193        C202   1.465       .  S
In196       O198   2.244       .  S
In196       O199   2.261       .  S
In196       O207   2.245       .  S
In196       O201   2.252       .  S
In196       O203   2.264       .  S
In196       O204   2.240       .  S
In196       O205   2.242       .  S
In196       O208   2.261       .  S
C197        O203   1.260       .  A
C197        O205   1.259       .  A
O198        C206   1.261       .  A
O199        C206   1.260       .  A
C200        O207   1.260       .  A
C200        O201   1.260       .  A
C200       C1922   1.485       .  S
C202        O204   1.259       .  A
C202        O208   1.260       .  A
C206       C2085   1.483       .  S
In209       O211   2.250       .  S
In209       O212   2.220       .  S
In209       O220   2.231       .  S
In209       O214   2.261       .  S
In209       O216   2.266       .  S
In209       O217   2.239       .  S
In209       O218   2.226       .  S
In209       O221   2.222       .  S
C210        O216   1.263       .  A
C210        O218   1.257       .  A
C210        C223   1.463       .  S
O211        C219   1.262       .  A
O212        C219   1.259       .  A
C213        O220   1.259       .  A
C213        O214   1.262       .  A
C213       C1915   1.483       .  S
C215        O217   1.262       .  A
C215        O221   1.262       .  A
C215       C2235   1.477       .  S
C219        C254   1.458       .  S
In222       O224   2.225       .  S
In222       O225   2.251       .  S
In222       O233   2.244       .  S
In222       O227   2.243       .  S
In222       O229   2.263       .  S
In222       O230   2.241       .  S
In222       O231   2.233       .  S
In222       O234   2.257       .  S
C223        O229   1.260       .  A
C223        O231   1.258       .  A
O224        C232   1.260       .  A
O225        C232   1.261       .  A
C226        O233   1.260       .  A
C226        O227   1.258       .  A
C226       C1902   1.481       .  S
C228        O230   1.258       .  A
C228        O234   1.260       .  A
C228        C245   1.463       .  S
C232       C2255   1.478       .  S
In235       O237   2.251       .  S
In235       O238   2.235       .  S
In235       O246   2.257       .  S
In235       O240   2.256       .  S
In235       O242   2.280       .  S
In235       O243   2.238       .  S
In235       O244   2.225       .  S
In235       O247   2.245       .  S
C236        O242   1.264       .  A
C236        O244   1.257       .  A
C236        C249   1.468       .  S
O237        C245   1.262       .  A
O238        C245   1.260       .  A
C239        O246   1.261       .  A
C239        O240   1.263       .  A
C239       C1892   1.491       .  S
C241        O243   1.261       .  A
C241        O247   1.262       .  A
C241       C1995   1.482       .  S
In248       O250   2.224       .  S
In248       O251   2.256       .  S
In248       O259   2.238       .  S
In248       O253   2.263       .  S
In248       O255   2.275       .  S
In248       O256   2.224       .  S
In248       O257   2.224       .  S
In248       O260   2.256       .  S
C249        O255   1.264       .  A
C249        O257   1.259       .  A
O250        C258   1.260       .  A
O251        C258   1.261       .  A
C252        O259   1.257       .  A
C252        O253   1.261       .  A
C252       C1885   1.484       .  S
C254        O256   1.258       .  A
C254        O260   1.261       .  A
C258       C1975   1.480       .  S
In261       O263   2.264       .  S
In261       O264   2.255       .  S
In261       O272   2.247       .  S
In261       O266   2.263       .  S
In261       O268   2.265       .  S
In261       O269   2.258       .  S
In261       O270   2.217       .  S
In261       O273   2.244       .  S
C262        O268   1.264       .  A
C262        O270   1.260       .  A
C262        C301   1.463       .  S
O263        C271   1.262       .  A
O264        C271   1.260       .  A
C265        O272   1.259       .  A
C265        O266   1.259       .  A
C265       C2292   1.485       .  S
C267        O269   1.261       .  A
C267        O273   1.258       .  A
C267       C1872   1.483       .  S
C271        C280   1.473   1_455  S
In274       O276   2.246       .  S
In274       O277   2.266       .  S
In274       O285   2.253       .  S
In274       O279   2.263       .  S
In274       O281   2.266       .  S
In274       O282   2.257       .  S
In274       O283   2.232       .  S
In274       O286   2.264       .  S
C275        O281   1.263       .  A
C275        O283   1.259       .  A
C275        C288   1.466       .  S
O276        C284   1.260       .  A
O277        C284   1.262       .  A
C278        O285   1.260       .  A
C278        O279   1.260       .  A
C278       C2205   1.490       .  S
C280        O282   1.261       .  A
C280        O286   1.261       .  A
C284       C1862   1.490       .  S
In287       O289   2.256       .  S
In287       O290   2.238       .  S
In287       O298   2.232       .  S
In287       O292   2.258       .  S
In287       O294   2.266       .  S
In287       O295   2.258       .  S
In287       O296   2.234       .  S
In287       O299   2.229       .  S
C288        O294   1.262       .  A
C288        O296   1.259       .  A
O289        C297   1.260       .  A
O290        C297   1.258       .  A
C291        O298   1.259       .  A
C291        O292   1.260       .  A
C291       C2025   1.475       .  S
C293        O295   1.261       .  A
C293        O299   1.262       .  A
C293       C1852   1.483       .  S
C297        C306   1.463   1_655  S
In300       O302   2.258       .  S
In300       O303   2.249       .  S
In300       O311   2.254       .  S
In300       O305   2.257       .  S
In300       O307   2.272       .  S
In300       O308   2.240       .  S
In300       O309   2.219       .  S
In300       O312   2.253       .  S
C301        O307   1.264       .  A
C301        O309   1.257       .  A
O302        C310   1.262       .  A
O303        C310   1.261       .  A
C304        O311   1.261       .  A
C304        O305   1.262       .  A
C304       C2052   1.489       .  S
C306        O308   1.260       .  A
C306        O312   1.260       .  A
C310       C1845   1.487       .  S
In313       O315   2.235   1_545  S
In313       O316   2.282       .  S
In313       O324   2.244   1_545  S
In313       O318   2.282       .  S
In313       O320   2.263       .  S
In313       O321   2.242       .  S
In313       O322   2.252       .  S
In313       O325   2.249       .  S
C314        O320   1.262       .  A
C314        O322   1.260       .  A
C314       C1942   1.491       .  S
O315        C323   1.260       .  A
O316        C323   1.261   1_545  A
C317        O324   1.260       .  A
C317        O318   1.263   1_565  A
C317       C1822   1.493       .  S
C319        O321   1.261       .  A
C319        O325   1.261       .  A
C319       C1812   1.483       .  S
C323       C1832   1.492       .  S
In326       O328   2.220       .  S
In326       O329   2.234       .  S
In326       O337   2.225       .  S
In326       O331   2.270       .  S
In326       O333   2.255       .  S
In326       O334   2.242       .  S
In326       O335   2.221       .  S
In326       O338   2.240       .  S
C327        O333   1.267       .  A
C327        O335   1.259       .  A
C327       C1795   1.483       .  S
O328        C336   1.261       .  A
O329        C336   1.265       .  A
C330        O337   1.261       .  A
C330        O331   1.266       .  A
C330       C1825   1.491       .  S
C332        O334   1.264       .  A
C332        O338   1.263       .  A
C332       C1802   1.485       .  S
C336       C1782   1.470       .  S
In339       O341   2.254       .  S
In339       O342   2.232       .  S
In339       O350   2.244       .  S
In339       O344   2.268       .  S
In339       O346   2.282       .  S
In339       O347   2.247       .  S
In339       O348   2.210       .  S
In339       O351   2.243       .  S
C340        O346   1.266       .  A
C340        O348   1.257       .  A
C340       C1762   1.481       .  S
O341        C349   1.265       .  A
O342        C349   1.261       .  A
C343        O350   1.261       .  A
C343        O344   1.263       .  A
C343       C1772   1.486       .  S
C345        O347   1.260       .  A
C345        O351   1.260       .  A
C345       C1752   1.480       .  S
C349       C1805   1.485       .  S
In352       O354   2.239       .  S
In352       O355   2.273       .  S
In352       O363   2.239       .  S
In352       O357   2.262       .  S
In352       O359   2.254       .  S
In352       O360   2.258       .  S
In352       O361   2.276       .  S
In352       O364   2.248       .  S
C353        O359   1.259       .  A
C353        O361   1.260       .  A
C353       C1955   1.492       .  S
O354        C362   1.260       .  A
O355        C362   1.262       .  A
C356        O363   1.261       .  A
C356        O357   1.263       .  A
C356       C1775   1.485       .  S
C358        O360   1.262       .  A
C358        O364   1.259       .  A
C358       C1742   1.486       .  S
C362       C1735   1.490       .  S
In365       O367   2.211       .  S
In365       O368   2.259       .  S
In365       O376   2.225       .  S
In365       O370   2.283       .  S
In365       O372   2.268       .  S
In365       O373   2.241       .  S
In365       O374   2.221       .  S
In365       O377   2.236       .  S
C366        O372   1.268       .  A
C366        O374   1.259       .  A
C366       C1865   1.484       .  S
O367        C375   1.260       .  A
O368        C375   1.264       .  A
C369        O376   1.261       .  A
C369        O370   1.266       .  A
C369       C1835   1.494       .  S
C371        O373   1.264       .  A
C371        O377   1.264       .  A
C371       C1722   1.484       .  S
C375       C2142   1.480       .  S
In378       O380   2.249       .  S
In378       O381   2.223       .  S
In378       O389   2.233       .  S
In378       O383   2.255       .  S
In378       O385   2.282       .  S
In378       O386   2.233       .  S
In378       O387   2.199       .  S
In378       O390   2.223       .  S
C379        O385   1.268       .  A
C379        O387   1.257       .  A
C379       C1855   1.485       .  S
O380        C388   1.265       .  A
O381        C388   1.261       .  A
C382        O389   1.260       .  A
C382        O383   1.265       .  A
C382       C1745   1.484       .  S
C384        O386   1.262       .  A
C384        O390   1.261       .  A
C384       C2105   1.473       .  S
C388       C1725   1.483       .  S
In391       O393   2.235       .  S
In391       O394   2.253       .  S
In391       O402   2.244   1_545  S
In391       O396   2.245       .  S
In391       O398   2.243       .  S
In391       O399   2.261       .  S
In391       O400   2.245       .  S
In391       O403   2.200       .  S
C392        O398   1.260       .  A
C392        O400   1.263       .  A
C392       C1935   1.483       .  S
O393        C401   1.258       .  A
O394        C401   1.259       .  A
C395        O402   1.258       .  A
C395        O396   1.258   1_565  A
C395       C1702   1.480       .  S
C397        O399   1.262   1_565  A
C397        O403   1.259   1_565  A
C397       C1712   1.474       .  S
C401       C1695   1.480       .  S
In404       O406   2.190       .  S
In404       O407   2.263       .  S
In404       O415   2.230       .  S
In404       O409   2.217       .  S
In404       O411   2.229       .  S
In404       O412   2.258       .  S
In404       O413   2.224       .  S
In404       O416   2.203       .  S
C405        O411   1.264       .  A
C405        O413   1.262       .  A
C405       C2162   1.476       .  S
O406        C414   1.259       .  A
O407        C414   1.267       .  A
C408        O415   1.264       .  A
C408        O409   1.262       .  A
C408       C1685   1.476       .  S
C410        O412   1.268       .  A
C410        O416   1.258       .  A
C410       C1875   1.481       .  S
C414       C1715   1.478       .  S
In417       O419   2.201       .  S
In417       O420   2.251       .  S
In417       O428   2.240       .  S
In417       O422   2.261       .  S
In417       O424   2.258       .  S
In417       O425   2.229       .  S
In417       O426   2.236       .  S
In417       O429   2.223       .  S
C418        O424   1.268       .  A
C418        O426   1.261       .  A
C418       C1842   1.487       .  S
O419        C427   1.260       .  A
O420        C427   1.266       .  A
C421        O428   1.262       .  A
C421        O422   1.266       .  A
C421       C1672   1.492       .  S
C423        O425   1.265       .  A
C423        O429   1.263       .  A
C423       C1682   1.478       .  S
C427       C2075   1.477       .  S
In430       O432   2.235       .  S
In430       O433   2.266       .  S
In430       O441   2.232       .  S
In430       O435   2.261       .  S
In430       O437   2.255       .  S
In430       O438   2.258       .  S
In430       O439   2.235       .  S
In430       O442   2.259       .  S
C431        O437   1.263       .  A
C431        O439   1.261       .  A
C431       C1925   1.483       .  S
O432        C440   1.260       .  A
O433        C440   1.264       .  A
C434        O441   1.260       .  A
C434        O435   1.263       .  A
C434       C1662   1.486       .  S
C436        O438   1.262       .  A
C436        O442   1.261       .  A
C436       C1652   1.490       .  S
C440       C1675   1.489       .  S
In443       O445   2.251       .  S
In443       O446   2.215       .  S
In443       O454   2.207       .  S
In443       O448   2.259       .  S
In443       O450   2.283       .  S
In443       O451   2.230       .  S
In443       O452   2.199       .  S
In443       O455   2.221       .  S
C444        O450   1.267       .  A
C444        O452   1.257       .  A
C444       C1635   1.480       .  S
O445        C453   1.265       .  A
O446        C453   1.260       .  A
C447        O454   1.259       .  A
C447        O448   1.266       .  A
C447       C1705   1.479       .  S
C449        O451   1.261       .  A
C449        O455   1.261       .  A
C449       C1622   1.469       .  S
C453       C1642   1.481       .  S
In456       O458   2.241       .  S
In456       O459   2.252       .  S
In456       O467   2.216       .  S
In456       O461   2.269       .  S
In456       O463   2.263       .  S
In456       O464   2.228       .  S
In456       O465   2.215       .  S
In456       O468   2.245       .  S
C457        O463   1.267       .  A
C457        O465   1.259       .  A
C457       C1615   1.484       .  S
O458        C466   1.262       .  A
O459        C466   1.263       .  A
C460        O467   1.260       .  A
C460        O461   1.266       .  A
C460       C1665   1.486       .  S
C462        O464   1.263       .  A
C462        O468   1.263       .  A
C462       C1645   1.482       .  S
C466       C1602   1.486       .  S
In469       O471   2.239       .  S
In469       O472   2.222       .  S
In469       O480   2.258       .  S
In469       O474   2.241       .  S
In469       O476   2.261       .  S
In469       O477   2.267       .  S
In469       O478   2.232       .  S
In469       O481   2.223       .  S
C470        O476   1.262       .  A
C470        O478   1.258       .  A
C470        C483   1.462       .  S
O471        C479   1.261       .  A
O472        C479   1.261       .  A
C473        O480   1.260       .  A
C473        O474   1.258       .  A
C473       C1592   1.483       .  S
C475        O477   1.260       .  A
C475        O481   1.259       .  A
C475       C1765   1.481       .  S
C479        C514   1.455       .  S
In482       O484   2.237       .  S
In482       O485   2.247       .  S
In482       O493   2.232       .  S
In482       O487   2.237       .  S
In482       O489   2.258       .  S
In482       O490   2.235       .  S
In482       O491   2.233       .  S
In482       O494   2.253       .  S
C483        O489   1.261       .  A
C483        O491   1.259       .  A
O484        C492   1.260       .  A
O485        C492   1.261       .  A
C486        O493   1.260       .  A
C486        O487   1.261       .  A
C486       C1582   1.479       .  S
C488        O490   1.259       .  A
C488        O494   1.260       .  A
C488        C505   1.461       .  S
C492       C1792   1.482       .  S
In495       O497   2.254       .  S
In495       O498   2.233       .  S
In495       O506   2.254       .  S
In495       O500   2.273       .  S
In495       O502   2.276       .  S
In495       O503   2.267       .  S
In495       O504   2.244       .  S
In495       O507   2.228       .  S
C496        O502   1.263       .  A
C496        O504   1.259       .  A
C496        C509   1.473       .  S
O497        C505   1.261       .  A
O498        C505   1.259       .  A
C499        O506   1.260       .  A
C499        O500   1.261       .  A
C499       C1572   1.490       .  S
C501        O503   1.261       .  A
C501        O507   1.261       .  A
C501       C1632   1.485       .  S
In508       O510   2.242       .  S
In508       O511   2.241       .  S
In508       O519   2.246       .  S
In508       O513   2.261       .  S
In508       O515   2.275       .  S
In508       O516   2.226       .  S
In508       O517   2.245       .  S
In508       O520   2.248       .  S
C509        O515   1.263       .  A
C509        O517   1.259       .  A
O510        C518   1.262       .  A
O511        C518   1.260       .  A
C512        O519   1.258       .  A
C512        O513   1.262       .  A
C512       C1565   1.487       .  S
C514        O516   1.258       .  A
C514        O520   1.261       .  A
C518       C1612   1.482       .  S
In521       O523   2.245       .  S
In521       O524   2.246       .  S
In521       O532   2.231       .  S
In521       O526   2.258       .  S
In521       O528   2.259       .  S
In521       O529   2.269       .  S
In521       O530   2.235       .  S
In521       O533   2.224       .  S
C522        O528   1.262       .  A
C522        O530   1.261       .  A
C522       C1532   1.487       .  S
O523        C531   1.259       .  A
O524        C531   1.261       .  A
C525        O532   1.259       .  A
C525        O526   1.262       .  A
C525       C1552   1.482       .  S
C527        O529   1.263       .  A
C527        O533   1.260       .  A
C527       C1542   1.485       .  S
C531       C1595   1.483       .  S
In534       O536   2.233       .  S
In534       O537   2.229       .  S
In534       O545   2.206       .  S
In534       O539   2.266       .  S
In534       O541   2.268       .  S
In534       O542   2.249       .  S
In534       O543   2.209       .  S
In534       O546   2.215       .  S
C535        O541   1.267       .  A
C535        O543   1.258       .  A
C535       C1512   1.483       .  S
O536        C544   1.263       .  A
O537        C544   1.262       .  A
C538        O545   1.260       .  A
C538        O539   1.266       .  A
C538       C1545   1.481       .  S
C540        O542   1.263       .  A
C540        O546   1.261       .  A
C540       C1502   1.480       .  S
C544       C1522   1.478       .  S
In547       O549   2.200       .  S
In547       O550   2.251       .  S
In547       O558   2.210       .  S
In547       O552   2.241       .  S
In547       O554   2.269       .  S
In547       O555   2.231       .  S
In547       O556   2.213       .  S
In547       O559   2.220       .  S
C548        O554   1.267       .  A
C548        O556   1.260       .  A
C548       C1482   1.487       .  S
O549        C557   1.260       .  A
O550        C557   1.265       .  A
C551        O558   1.261       .  A
C551        O552   1.265       .  A
C551       C1492   1.476       .  S
C553        O555   1.264       .  A
C553        O559   1.262       .  A
C553       C1525   1.476       .  S
C557       C1472   1.476       .  S
In560       O562   2.242       .  S
In560       O563   2.255       .  S
In560       O571   2.223       .  S
In560       O565   2.246       .  S
In560       O567   2.252       .  S
In560       O568   2.269       .  S
In560       O569   2.258       .  S
In560       O572   2.230       .  S
C561        O567   1.259       .  A
C561        O569   1.261       .  A
C561       C1562   1.487       .  S
O562        C570   1.260       .  A
O563        C570   1.261       .  A
C564        O571   1.261       .  A
C564        O565   1.263       .  A
C564       C1495   1.474       .  S
C566        O568   1.262       .  A
C566        O572   1.259       .  A
C566       C1452   1.487       .  S
C570       C1462   1.479       .  S
In573       O575   2.239       .  S
In573       O576   2.226       .  S
In573       O584   2.214       .  S
In573       O578   2.260       .  S
In573       O580   2.264       .  S
In573       O581   2.252       .  S
In573       O582   2.209       .  S
In573       O585   2.222       .  S
C574        O580   1.269       .  A
C574        O582   1.260       .  A
C574       C1432   1.484       .  S
O575        C583   1.264       .  A
O576        C583   1.265       .  A
C577        O584   1.260       .  A
C577        O578   1.267       .  A
C577       C1555   1.480       .  S
C579        O581   1.265       .  A
C579        O585   1.261       .  A
C579       C1755   1.482       .  S
C583       C1442   1.482       .  S
In586       O588   2.241       .  S
In586       O589   2.253       .  S
In586       O597   2.223       .  S
In586       O591   2.250       .  S
In586       O593   2.263       .  S
In586       O594   2.230       .  S
In586       O595   2.206       .  S
In586       O598   2.238       .  S
C587        O593   1.266       .  A
C587        O595   1.259       .  A
C587       C1422   1.481       .  S
O588        C596   1.261       .  A
O589        C596   1.263       .  A
C590        O597   1.260       .  A
C590        O591   1.264       .  A
C590       C1465   1.478       .  S
C592        O594   1.264       .  A
C592        O598   1.263       .  A
C592       C1445   1.482       .  S
C596       C1605   1.487       .  S
In599       O601   2.230       .  S
In599       O602   2.253       .  S
In599       O610   2.235       .  S
In599       O604   2.245       .  S
In599       O606   2.270       .  S
In599       O607   2.220       .  S
In599       O608   2.227       .  S
In599       O611   2.261       .  S
C600        O606   1.264       .  A
C600        O608   1.259       .  A
C600        C613   1.467   1_655  S
O601        C609   1.261       .  A
O602        C609   1.262       .  A
C603        O610   1.259       .  A
C603        O604   1.262       .  A
C603       C1405   1.481       .  S
C605        O607   1.259       .  A
C605        O611   1.261       .  A
C605        C635   1.462       .  S
C609       C1412   1.480       .  S
In612       O614   2.237       .  S
In612       O615   2.243       .  S
In612       O623   2.244       .  S
In612       O617   2.259       .  S
In612       O619   2.268       .  S
In612       O620   2.245       .  S
In612       O621   2.232       .  S
In612       O624   2.232       .  S
C613        O619   1.263       .  A
C613        O621   1.259       .  A
O614        C622   1.260       .  A
O615        C622   1.259       .  A
C616        O623   1.259       .  A
C616        O617   1.261       .  A
C616       C1382   1.484       .  S
C618        O620   1.260       .  A
C618        O624   1.261       .  A
C618       C1392   1.475       .  S
C622        C644   1.458       .  S
In625       O627   2.271       .  S
In625       O628   2.220       .  S
In625       O636   2.238       .  S
In625       O630   2.279       .  S
In625       O632   2.265       .  S
In625       O633   2.245       .  S
In625       O634   2.230       .  S
In625       O637   2.229       .  S
C626        O632   1.264       .  A
C626        O634   1.256       .  A
C626        C639   1.464   1_655  S
O627        C635   1.263       .  A
O628        C635   1.256       .  A
C629        O636   1.259       .  A
C629        O630   1.262       .  A
C629       C1372   1.491       .  S
C631        O633   1.260       .  A
C631        O637   1.261       .  A
C631       C1515   1.477       .  S
In638       O640   2.243       .  S
In638       O641   2.271       .  S
In638       O649   2.252       .  S
In638       O643   2.238       .  S
In638       O645   2.256       .  S
In638       O646   2.251       .  S
In638       O647   2.244       .  S
In638       O650   2.235       .  S
C639        O645   1.258       .  A
C639        O647   1.261       .  A
O640        C648   1.261       .  A
O641        C648   1.260       .  A
C642        O649   1.261       .  A
C642        O643   1.258       .  A
C642       C1362   1.482       .  S
C644        O646   1.260       .  A
C644        O650   1.256       .  A
C648       C1485   1.489       .  S
In651       O653   2.223       .  S
In651       O654   2.257       .  S
In651       O662   2.258       .  S
In651       O656   2.246       .  S
In651       O658   2.265       .  S
In651       O659   2.236       .  S
In651       O660   2.221       .  S
In651       O663   2.246       .  S
C652        O658   1.262       .  A
C652        O660   1.256       .  A
C652        C665   1.459   1_655  S
O653        C661   1.261       .  A
O654        C661   1.262       .  A
C655        O662   1.261       .  A
C655        O656   1.259       .  A
C655       C1815   1.486       .  S
C657        O659   1.260       .  A
C657        O663   1.260       .  A
C657        C687   1.461       .  S
C661       C1352   1.481       .  S
In664       O666   2.245       .  S
In664       O667   2.227       .  S
In664       O675   2.232       .  S
In664       O669   2.254       .  S
In664       O671   2.260       .  S
In664       O672   2.236       .  S
In664       O673   2.217       .  S
In664       O676   2.239       .  S
C665        O671   1.263       .  A
C665        O673   1.259       .  A
O666        C674   1.261       .  A
O667        C674   1.257       .  A
C668        O675   1.257       .  A
C668        O669   1.260       .  A
C668       C1692   1.479       .  S
C670        O672   1.259       .  A
C670        O676   1.261       .  A
C670       C1345   1.475       .  S
C674        C696   1.456       .  S
In677       O679   2.259       .  S
In677       O680   2.246       .  S
In677       O688   2.235       .  S
In677       O682   2.269       .  S
In677       O684   2.272       .  S
In677       O685   2.243       .  S
In677       O686   2.237       .  S
In677       O689   2.235       .  S
C678        O684   1.261       .  A
C678        O686   1.257       .  A
C678        C691   1.466   1_655  S
O679        C687   1.258       .  A
O680        C687   1.256       .  A
C681        O688   1.259       .  A
C681        O682   1.261       .  A
C681       C1732   1.488       .  S
C683        O685   1.262       .  A
C683        O689   1.264       .  A
C683       C1435   1.483       .  S
In690       O692   2.227       .  S
In690       O693   2.256       .  S
In690       O701   2.261       .  S
In690       O695   2.244       .  S
In690       O697   2.266       .  S
In690       O698   2.231       .  S
In690       O699   2.230       .  S
In690       O702   2.238       .  S
C691        O697   1.263       .  A
C691        O699   1.259       .  A
O692        C700   1.261       .  A
O693        C700   1.262       .  A
C694        O701   1.261       .  A
C694        O695   1.261       .  A
C694       C1655   1.488       .  S
C696        O698   1.260       .  A
C696        O702   1.259       .  A
C700       C1425   1.482       .  S
In703       O705   2.206   1_565  S
In703       O706   2.264       .  S
In703       O714   2.253       .  S
In703       O708   2.250   1_565  S
In703       O710   2.254   1_565  S
In703       O711   2.252       .  S
In703       O712   2.254   1_565  S
In703       O715   2.232       .  S
C704        O710   1.261       .  A
C704        O712   1.262       .  A
C704       C1312   1.487       .  S
O705        C713   1.260   1_545  A
O706        C713   1.263       .  A
C707        O714   1.260   1_545  A
C707        O708   1.261       .  A
C707       C1322   1.486       .  S
C709        O711   1.261       .  A
C709        O715   1.259       .  A
C709       C1585   1.481       .  S
C713       C1332   1.479       .  S
In716       O718   2.224       .  S
In716       O719   2.229   1_545  S
In716       O727   2.222       .  S
In716       O721   2.259       .  S
In716       O723   2.270       .  S
In716       O724   2.228       .  S
In716       O725   2.195       .  S
In716       O728   2.241       .  S
C717        O723   1.269       .  A
C717        O725   1.259       .  A
C717       C1355   1.481       .  S
O718        C726   1.260   1_545  A
O719        C726   1.263       .  A
C720        O727   1.259       .  A
C720        O721   1.267       .  A
C720       C1325   1.483       .  S
C722        O724   1.263       .  A
C722        O728   1.265       .  A
C722       C1302   1.482       .  S
C726       C1785   1.473       .  S
In729       O731   2.237       .  S
In729       O732   2.229       .  S
In729       O740   2.211       .  S
In729       O734   2.279       .  S
In729       O736   2.256       .  S
In729       O737   2.244   1_545  S
In729       O738   2.216       .  S
In729       O741   2.213       .  S
C730        O736   1.267       .  A
C730        O738   1.259       .  A
C730       C1342   1.476       .  S
O731        C739   1.264       .  A
O732        C739   1.263       .  A
C733        O740   1.259       .  A
C733        O734   1.265       .  A
C733       C1292   1.482       .  S
C735        O737   1.263       .  A
C735        O741   1.260   1_565  A
C735       C1625   1.473       .  S
C739       C1305   1.482       .  S
In742       O744   2.250       .  S
In742       O745   2.259       .  S
In742       O753   2.237       .  S
In742       O747   2.267   1_545  S
In742       O749   2.271   1_545  S
In742       O750   2.274       .  S
In742       O751   2.254   1_545  S
In742       O754   2.242       .  S
C743        O749   1.261       .  A
C743        O751   1.260       .  A
C743       C1575   1.493       .  S
O744        C752   1.261       .  A
O745        C752   1.262       .  A
C746        O753   1.261       .  A
C746        O747   1.263   1_545  A
C746       C1282   1.489   1_545  S
C748        O750   1.261       .  A
C748        O754   1.260       .  A
C748       C1295   1.489       .  S
C752       C1272   1.490       .  S
In755       O757   2.217       .  S
In755       O758   2.229   1_565  S
In755       O766   2.207       .  S
In755       O760   2.269       .  S
In755       O762   2.276       .  S
In755       O763   2.225       .  S
In755       O764   2.205       .  S
In755       O767   2.242       .  S
C756        O762   1.266       .  A
C756        O764   1.257       .  A
C756       C1415   1.482       .  S
O757        C765   1.259   1_565  A
O758        C765   1.261       .  A
C759        O766   1.258       .  A
C759        O760   1.265       .  A
C759       C1335   1.476       .  S
C761        O763   1.260       .  A
C761        O767   1.266       .  A
C761       C1262   1.481       .  S
C765       C1252   1.472       .  S
In768       O770   2.230       .  S
In768       O771   2.233   1_565  S
In768       O779   2.217   1_565  S
In768       O773   2.269       .  S
In768       O775   2.260       .  S
In768       O776   2.246   1_565  S
In768       O777   2.209       .  S
In768       O780   2.215       .  S
C769        O775   1.268       .  A
C769        O777   1.259       .  A
C769       C1395   1.482       .  S
O770        C778   1.263       .  A
O771        C778   1.264   1_545  A
C772        O779   1.261   1_565  A
C772        O773   1.267       .  A
C772       C1285   1.489       .  S
C774        O776   1.265       .  A
C774        O780   1.261   1_545  A
C774       C1242   1.480       .  S
C778       C1265   1.482       .  S
In781       O783   2.215   1_565  S
In781       O784   2.262       .  S
In781       O792   2.228   1_565  S
In781       O786   2.250       .  S
In781       O788   2.218       .  S
In781       O789   2.252       .  S
In781       O790   2.251       .  S
In781       O793   2.228       .  S
C782        O788   1.259       .  A
C782        O790   1.262       .  A
C782       C1402   1.475       .  S
O783        C791   1.257       .  A
O784        C791   1.262   1_565  A
C785        O792   1.261       .  A
C785        O786   1.260   1_545  A
C785       C1232   1.481       .  S
C787        O789   1.262       .  A
C787        O793   1.259       .  A
C787       C1905   1.481       .  S
C791       C1222   1.478       .  S
In794       O796   2.229       .  S
In794       O797   2.230       .  S
In794       O805   2.216       .  S
In794       O799   2.240       .  S
In794       O801   2.264       .  S
In794       O802   2.227       .  S
In794       O803   2.206       .  S
In794       O806   2.233       .  S
C795        O801   1.264       .  A
C795        O803   1.258       .  A
C795       C1202   1.479       .  S
O796        C804   1.261       .  A
O797        C804   1.261       .  A
C798        O805   1.261       .  A
C798        O799   1.264       .  A
C798       C1225   1.476       .  S
C800        O802   1.262       .  A
C800        O806   1.262       .  A
C800       C1212   1.476       .  S
C804       C1255   1.475       .  S
In807       O809   2.237       .  S
In807       O810   2.224       .  S
In807       O818   2.213       .  S
In807       O812   2.263       .  S
In807       O814   2.257       .  S
In807       O815   2.249       .  S
In807       O816   2.213       .  S
In807       O819   2.226       .  S
C808        O814   1.266       .  A
C808        O816   1.258       .  A
C808       C1182   1.481       .  S
O809        C817   1.263       .  A
O810        C817   1.263       .  A
C811        O818   1.260       .  A
C811        O812   1.264       .  A
C811       C1192   1.476       .  S
C813        O815   1.262       .  A
C813        O819   1.260       .  A
C813       C1505   1.481       .  S
C817       C1215   1.475       .  S
In820       O822   2.259       .  S
In820       O823   2.254       .  S
In820       O831   2.236       .  S
In820       O825   2.268       .  S
In820       O827   2.273       .  S
In820       O828   2.261       .  S
In820       O829   2.242       .  S
In820       O832   2.224       .  S
C821        O827   1.261       .  A
C821        O829   1.259       .  A
C821       C1375   1.490       .  S
O822        C830   1.260       .  A
O823        C830   1.259       .  A
C824        O831   1.258       .  A
C824        O825   1.261       .  A
C824       C1172   1.485       .  S
C826        O828   1.263       .  A
C826        O832   1.262       .  A
C826       C1195   1.477       .  S
C830       C1895   1.489       .  S
In833       O835   2.212       .  S
In833       O836   2.224       .  S
In833       O844   2.200       .  S
In833       O838   2.274       .  S
In833       O840   2.266       .  S
In833       O841   2.220       .  S
In833       O842   2.202       .  S
In833       O845   2.219       .  S
C834        O840   1.269       .  A
C834        O842   1.258       .  A
C834       C1152   1.482       .  S
O835        C843   1.262       .  A
O836        C843   1.262       .  A
C837        O844   1.258       .  A
C837        O838   1.267       .  A
C837       C1235   1.484       .  S
C839        O841   1.262       .  A
C839        O845   1.264       .  A
C839       C1162   1.475       .  S
C843       C2245   1.471       .  S
In846       O848   2.209       .  S
In846       O849   2.262       .  S
In846       O857   2.221       .  S
In846       O851   2.231       .  S
In846       O853   2.232       .  S
In846       O854   2.256       .  S
In846       O855   2.238       .  S
In846       O858   2.210       .  S
C847        O853   1.263       .  A
C847        O855   1.262       .  A
C847       C1982   1.475       .  S
O848        C856   1.260       .  A
O849        C856   1.266       .  A
C850        O857   1.263       .  A
C850        O851   1.264       .  A
C850       C1165   1.477       .  S
C852        O854   1.268       .  A
C852        O858   1.258       .  A
C852       C1142   1.480       .  S
C856       C1175   1.483       .  S
In859       O861   2.204       .  S
In859       O862   2.245       .  S
In859       O870   2.233       .  S
In859       O864   2.227       .  S
In859       O866   2.246       .  S
In859       O867   2.256       .  S
In859       O868   2.225       .  S
In859       O871   2.194       .  S
C860        O866   1.265       .  A
C860        O868   1.261       .  A
C860       C2225   1.482       .  S
O861        C869   1.260       .  A
O862        C869   1.267       .  A
C863        O870   1.264       .  A
C863        O864   1.265       .  A
C863       C1135   1.481       .  S
C865        O867   1.268       .  A
C865        O871   1.260       .  A
C865       C1112   1.479       .  S
C869       C1122   1.474       .  S
In872       O874   2.217       .  S
In872       O875   2.251       .  S
In872       O883   2.201       .  S
In872       O877   2.259       .  S
In872       O879   2.271       .  S
In872       O880   2.213       .  S
In872       O881   2.189       .  S
In872       O884   2.243       .  S
C873        O879   1.268       .  A
C873        O881   1.258       .  A
C873       C1092   1.482       .  S
O874        C882   1.260       .  A
O875        C882   1.263       .  A
C876        O883   1.259       .  A
C876        O877   1.266       .  A
C876       C1102   1.480       .  S
C878        O880   1.263       .  A
C878        O884   1.265       .  A
C878       C1132   1.479       .  S
C882       C1965   1.479       .  S
In885       O887   2.221       .  S
In885       O888   2.263       .  S
In885       O896   2.250       .  S
In885       O890   2.242       .  S
In885       O892   2.235       .  S
In885       O893   2.258       .  S
In885       O894   2.250       .  S
In885       O897   2.241       .  S
C886        O892   1.259       .  A
C886        O894   1.262       .  A
C886       C1882   1.483       .  S
O887        C895   1.259       .  A
O888        C895   1.263       .  A
C889        O896   1.262       .  A
C889        O890   1.259       .  A
C889       C1082   1.482       .  S
C891        O893   1.261       .  A
C891        O897   1.259       .  A
C891       C1365   1.485       .  S
C895       C1105   1.482       .  S
In898       O900   2.241       .  S
In898       O901   2.255       .  S
In898       O909   2.236   1_565  S
In898       O903   2.243       .  S
In898       O905   2.257       .  S
In898       O906   2.250       .  S
In898       O907   2.250       .  S
In898       O910   2.240   1_565  S
C899        O905   1.259       .  A
C899        O907   1.260       .  A
C899       C1385   1.485       .  S
O900        C908   1.260       .  A
O901        C908   1.260       .  A
C902        O909   1.261       .  A
C902        O903   1.261   1_545  A
C902       C1125   1.478       .  S
C904        O906   1.261   1_545  A
C904        O910   1.260       .  A
C904       C1075   1.478       .  S
C908       C1912   1.485       .  S
In911       O913   2.235       .  S
In911       O914   2.227       .  S
In911       O922   2.230       .  S
In911       O916   2.251       .  S
In911       O918   2.263       .  S
In911       O919   2.247       .  S
In911       O920   2.211       .  S
In911       O923   2.220       .  S
C912        O918   1.266       .  A
C912        O920   1.259       .  A
C912       C1052   1.481       .  S
O913        C921   1.264       .  A
O914        C921   1.263       .  A
C915        O922   1.260       .  A
C915        O916   1.264       .  A
C915       C1072   1.479       .  S
C917        O919   1.263       .  A
C917        O923   1.260       .  A
C917       C1245   1.477       .  S
C921       C1065   1.480       .  S
In924       O926   2.215       .  S
In924       O927   2.235       .  S
In924       O935   2.218       .  S
In924       O929   2.267       .  S
In924       O931   2.287       .  S
In924       O932   2.213       .  S
In924       O933   2.202       .  S
In924       O936   2.229       .  S
C925        O931   1.270       .  A
C925        O933   1.257       .  A
C925       C1045   1.488       .  S
O926        C934   1.263       .  A
O927        C934   1.263       .  A
C928        O935   1.259       .  A
C928        O929   1.268       .  A
C928       C1085   1.485       .  S
C930        O932   1.263       .  A
C930        O936   1.264       .  A
C930       C1062   1.476       .  S
C934       C1475   1.476       .  S
In937       O939   2.262       .  S
In937       O940   2.247       .  S
In937       O948   2.232       .  S
In937       O942   2.263       .  S
In937       O944   2.261       .  S
In937       O945   2.248       .  S
In937       O946   2.226       .  S
In937       O949   2.238       .  S
C938        O944   1.263       .  A
C938        O946   1.259       .  A
C938        C951   1.463       .  S
O939        C947   1.260       .  A
O940        C947   1.259       .  A
C941        O948   1.259       .  A
C941        O942   1.262       .  A
C941       C1535   1.485       .  S
C943        O945   1.262       .  A
C943        O949   1.261       .  A
C943       C1185   1.483       .  S
C947        C982   1.468       .  S
In950       O952   2.223       .  S
In950       O953   2.261       .  S
In950       O961   2.250       .  S
In950       O955   2.259       .  S
In950       O957   2.263       .  S
In950       O958   2.231       .  S
In950       O959   2.224       .  S
In950       O962   2.257       .  S
C951        O957   1.264       .  A
C951        O959   1.259       .  A
O952        C960   1.259       .  A
O953        C960   1.262       .  A
C954        O961   1.260       .  A
C954        O955   1.261       .  A
C954       C1315   1.489       .  S
C956        O958   1.260       .  A
C956        O962   1.261       .  A
C956        C973   1.464       .  S
C960       C1205   1.482       .  S
In963       O965   2.266       .  S
In963       O966   2.234       .  S
In963       O974   2.252       .  S
In963       O968   2.259       .  S
In963       O970   2.263       .  S
In963       O971   2.257       .  S
In963       O972   2.234       .  S
In963       O975   2.231       .  S
C964        O970   1.261       .  A
C964        O972   1.259       .  A
C964        C977   1.464       .  S
O965        C973   1.261       .  A
O966        C973   1.257       .  A
C967        O974   1.259       .  A
C967        O968   1.259       .  A
C967       C1275   1.488       .  S
C969        O971   1.260       .  A
C969        O975   1.260       .  A
C969       C1055   1.482       .  S
In976       O978   2.245       .  S
In976       O979   2.252       .  S
In976       O987   2.250       .  S
In976       O981   2.272       .  S
In976       O983   2.266       .  S
In976       O984   2.246       .  S
In976       O985   2.230       .  S
In976       O988   2.264       .  S
C977        O983   1.262       .  A
C977        O985   1.258       .  A
O978        C986   1.263       .  A
O979        C986   1.261       .  A
C980        O987   1.260       .  A
C980        O981   1.261       .  A
C980       C1455   1.489       .  S
C982        O984   1.258       .  A
C982        O988   1.260       .  A
C986       C1042   1.484       .  S
In989       O991   2.230       .  S
In989       O992   2.250       .  S
In989      O1000   2.260       .  S
In989       O994   2.250       .  S
In989       O996   2.264       .  S
In989       O997   2.234       .  S
In989       O998   2.223       .  S
In989      O1001   2.253       .  S
C990        O996   1.263       .  A
C990        O998   1.257       .  A
C990       C1016   1.461       .  S
O991        C999   1.261       .  A
O992        C999   1.261       .  A
C993       O1000   1.260       .  A
C993        O994   1.259       .  A
C993       C2192   1.488       .  S
C995        O997   1.258       .  A
C995       O1001   1.260       .  A
C995       C1012   1.459   1_655  S
C999       C1155   1.479       .  S
In1002     O1004   2.246       .  S
In1002     O1005   2.229       .  S
In1002     O1013   2.239       .  S
In1002     O1007   2.243       .  S
In1002     O1009   2.258       .  S
In1002     O1010   2.249       .  S
In1002     O1011   2.229       .  S
In1002     O1014   2.226       .  S
C1003      O1009   1.262       .  A
C1003      O1011   1.259       .  A
C1003      C1029   1.462       .  S
O1004      C1012   1.261       .  A
O1005      C1012   1.259       .  A
C1006      O1013   1.259       .  A
C1006      O1007   1.260       .  A
C1006      C2285   1.480       .  S
C1008      O1010   1.261       .  A
C1008      O1014   1.261       .  A
C1008      C1115   1.479       .  S
In1015     O1017   2.246       .  S
In1015     O1018   2.221       .  S
In1015     O1026   2.231       .  S
In1015     O1020   2.247       .  S
In1015     O1022   2.265       .  S
In1015     O1023   2.232       .  S
In1015     O1024   2.218       .  S
In1015     O1027   2.238       .  S
C1016      O1022   1.262       .  A
C1016      O1024   1.258       .  A
O1017      C1025   1.262       .  A
O1018      C1025   1.259       .  A
C1019      O1026   1.258       .  A
C1019      O1020   1.261       .  A
C1019      C2012   1.479       .  S
C1021      O1023   1.260       .  A
C1021      O1027   1.261       .  A
C1021      C1145   1.478       .  S
C1025      C1034   1.456   1_655  S
In1028     O1030   2.222       .  S
In1028     O1031   2.252       .  S
In1028     O1039   2.242       .  S
In1028     O1033   2.243       .  S
In1028     O1035   2.260       .  S
In1028     O1036   2.226       .  S
In1028     O1037   2.233       .  S
In1028     O1040   2.247       .  S
C1029      O1035   1.261       .  A
C1029      O1037   1.258       .  A
O1030      C1038   1.262       .  A
O1031      C1038   1.261       .  A
C1032      O1039   1.260       .  A
C1032      O1033   1.260       .  A
C1032      C2045   1.481       .  S
C1034      O1036   1.258       .  A
C1034      O1040   1.260       .  A
C1038      C1095   1.480       .  S
C1041      C1042   1.411       .  A
C1041      C1046   1.406       .  A
C1041      F1048   1.358       .  S
C1042      C1043   1.404       .  A
C1043      C1044   1.395       .  A
C1043      F1050   1.358       .  S
C1044      C1045   1.412       .  A
C1044      F1049   1.358       .  S
C1045      C1046   1.407       .  A
C1046      F1047   1.357       .  S
C1051      C1052   1.407       .  A
C1051      C1056   1.403       .  A
C1051      F1058   1.358       .  S
C1052      C1053   1.408       .  A
C1053      C1054   1.393       .  A
C1053      F1060   1.358       .  S
C1054      C1055   1.406       .  A
C1054      F1059   1.358       .  S
C1055      C1056   1.411       .  A
C1056      F1057   1.358       .  S
C1061      C1062   1.407       .  A
C1061      C1066   1.395       .  A
C1061      F1068   1.358       .  S
C1062      C1063   1.407       .  A
C1063      C1064   1.397       .  A
C1063      F1070   1.358       .  S
C1064      C1065   1.409       .  A
C1064      F1069   1.358       .  S
C1065      C1066   1.408       .  A
C1066      F1067   1.358       .  S
C1071      C1072   1.407       .  A
C1071      C1076   1.398       .  A
C1071      F1078   1.358       .  S
C1072      C1073   1.408       .  A
C1073      C1074   1.400       .  A
C1073      F1080   1.358       .  S
C1074      C1075   1.406       .  A
C1074      F1079   1.358       .  S
C1075      C1076   1.407       .  A
C1076      F1077   1.358       .  S
C1081      C1082   1.406       .  A
C1081      C1086   1.398       .  A
C1081      F1088   1.358       .  S
C1082      C1083   1.409       .  A
C1083      C1084   1.401       .  A
C1083      F1090   1.358       .  S
C1084      C1085   1.406       .  A
C1084      F1089   1.357       .  S
C1085      C1086   1.411       .  A
C1086      F1087   1.358       .  S
C1091      C1092   1.408       .  A
C1091      C1096   1.404       .  A
C1091      F1098   1.358       .  S
C1092      C1093   1.409       .  A
C1093      C1094   1.389       .  A
C1093      F1100   1.358       .  S
C1094      C1095   1.404       .  A
C1094      F1099   1.358       .  S
C1095      C1096   1.411       .  A
C1096      F1097   1.358       .  S
C1101      C1102   1.407       .  A
C1101      C1106   1.403       .  A
C1101      F1108   1.358       .  S
C1102      C1103   1.408       .  A
C1103      C1104   1.392       .  A
C1103      F1110   1.359       .  S
C1104      C1105   1.407       .  A
C1104      F1109   1.358       .  S
C1105      C1106   1.410       .  A
C1106      F1107   1.357       .  S
C1111      C1112   1.409       .  A
C1111      C1116   1.391       .  A
C1111      F1118   1.358       .  S
C1112      C1113   1.407       .  A
C1113      C1114   1.402       .  A
C1113      F1120   1.358       .  S
C1114      C1115   1.410       .  A
C1114      F1119   1.358       .  S
C1115      C1116   1.405       .  A
C1116      F1117   1.358       .  S
C1121      C1122   1.407       .  A
C1121      C1126   1.395       .  A
C1121      F1128   1.359       .  S
C1122      C1123   1.405       .  A
C1123      C1124   1.399       .  A
C1123      F1130   1.358       .  S
C1124      C1125   1.408       .  A
C1124      F1129   1.357   1_545  S
C1125      C1126   1.407       .  A
C1126      F1127   1.358       .  S
C1131      C1132   1.407       .  A
C1131      C1136   1.395       .  A
C1131      F1138   1.358       .  S
C1132      C1133   1.407       .  A
C1133      C1134   1.400       .  A
C1133      F1140   1.358       .  S
C1134      C1135   1.410       .  A
C1134      F1139   1.358       .  S
C1135      C1136   1.407       .  A
C1136      F1137   1.358       .  S
C1141      C1142   1.405       .  A
C1141      C1146   1.398       .  A
C1141      F1148   1.357       .  S
C1142      C1143   1.411       .  A
C1143      C1144   1.396       .  A
C1143      F1150   1.358       .  S
C1144      C1145   1.406       .  A
C1144      F1149   1.359       .  S
C1145      C1146   1.409       .  A
C1146      F1147   1.358       .  S
C1151      C1152   1.407       .  A
C1151      C1156   1.402       .  A
C1151      F1158   1.357       .  S
C1152      C1153   1.410       .  A
C1153      C1154   1.393       .  A
C1153      F1160   1.358       .  S
C1154      C1155   1.405       .  A
C1154      F1159   1.359       .  S
C1155      C1156   1.409       .  A
C1156      F1157   1.358       .  S
C1161      C1162   1.408       .  A
C1161      C1166   1.397       .  A
C1161      F1168   1.358       .  S
C1162      C1163   1.406       .  A
C1163      C1164   1.393       .  A
C1163      F1170   1.358       .  S
C1164      C1165   1.407       .  A
C1164      F1169   1.358       .  S
C1165      C1166   1.408       .  A
C1166      F1167   1.358       .  S
C1171      C1172   1.410       .  A
C1171      C1176   1.404       .  A
C1171      F1178   1.357       .  S
C1172      C1173   1.408       .  A
C1173      C1174   1.394       .  A
C1173      F1180   1.358       .  S
C1174      C1175   1.408       .  A
C1174      F1179   1.358       .  S
C1175      C1176   1.408       .  A
C1176      F1177   1.358       .  S
C1181      C1182   1.410       .  A
C1181      C1186   1.396       .  A
C1181      F1188   1.359       .  S
C1182      C1183   1.406       .  A
C1183      C1184   1.400       .  A
C1183      F1190   1.357       .  S
C1184      C1185   1.409       .  A
C1184      F1189   1.357       .  S
C1185      C1186   1.407       .  A
C1186      F1187   1.358       .  S
C1191      C1192   1.408       .  A
C1191      C1196   1.405       .  A
C1191      F1198   1.358       .  S
C1192      C1193   1.404       .  A
C1193      C1194   1.392       .  A
C1193      F1200   1.358       .  S
C1194      C1195   1.404       .  A
C1194      F1199   1.358       .  S
C1195      C1196   1.409       .  A
C1196      F1197   1.358       .  S
C1201      C1202   1.407       .  A
C1201      C1206   1.403       .  A
C1201      F1208   1.358       .  S
C1202      C1203   1.407       .  A
C1203      C1204   1.391       .  A
C1203      F1210   1.358       .  S
C1204      C1205   1.407       .  A
C1204      F1209   1.358       .  S
C1205      C1206   1.410       .  A
C1206      F1207   1.358       .  S
C1211      C1212   1.407       .  A
C1211      C1216   1.394       .  A
C1211      F1218   1.358       .  S
C1212      C1213   1.407       .  A
C1213      C1214   1.399       .  A
C1213      F1220   1.358       .  S
C1214      C1215   1.406       .  A
C1214      F1219   1.358       .  S
C1215      C1216   1.406       .  A
C1216      F1217   1.358       .  S
C1221      C1222   1.408       .  A
C1221      C1226   1.400       .  A
C1221      F1228   1.357       .  S
C1222      C1223   1.408       .  A
C1223      C1224   1.393       .  A
C1223      F1230   1.358       .  S
C1224      C1225   1.406       .  A
C1224      F1229   1.358       .  S
C1225      C1226   1.408       .  A
C1226      F1227   1.358       .  S
C1231      C1232   1.404       .  A
C1231      C1236   1.391       .  A
C1231      F1238   1.358       .  S
C1232      C1233   1.411       .  A
C1233      C1234   1.404       .  A
C1233      F1240   1.358       .  S
C1234      C1235   1.409       .  A
C1234      F1239   1.358       .  S
C1235      C1236   1.410       .  A
C1236      F1237   1.358       .  S
C1241      C1242   1.408       .  A
C1241      C1246   1.400       .  A
C1241      F1248   1.358       .  S
C1242      C1243   1.408       .  A
C1243      C1244   1.393       .  A
C1243      F1250   1.358       .  S
C1244      C1245   1.407       .  A
C1244      F1249   1.358       .  S
C1245      C1246   1.407       .  A
C1246      F1247   1.358       .  S
C1251      C1252   1.406       .  A
C1251      C1256   1.395       .  A
C1251      F1258   1.358       .  S
C1252      C1253   1.407       .  A
C1253      C1254   1.393       .  A
C1253      F1260   1.358   1_545  S
C1254      C1255   1.407       .  A
C1254      F1259   1.358       .  S
C1255      C1256   1.407       .  A
C1256      F1257   1.358       .  S
C1261      C1262   1.410   1_545  A
C1261      C1266   1.398   1_655  A
C1261      F1268   1.358       .  S
C1262      C1263   1.406       .  A
C1263      C1264   1.397   1_655  A
C1263      F1270   1.358       .  S
C1264      C1265   1.409       .  A
C1264      F1269   1.357       .  S
C1265      C1266   1.408   1_565  A
C1266      F1267   1.358       .  S
C1271      C1272   1.410       .  A
C1271      C1276   1.403       .  A
C1271      F1278   1.358       .  S
C1272      C1273   1.409       .  A
C1273      C1274   1.400       .  A
C1273      F1280   1.358       .  S
C1274      C1275   1.408       .  A
C1274      F1279   1.358       .  S
C1275      C1276   1.409       .  A
C1276      F1277   1.358       .  S
C1281      C1282   1.408   1_545  A
C1281      C1286   1.396       .  A
C1281      F1288   1.358       .  S
C1282      C1283   1.411       .  A
C1283      C1284   1.406       .  A
C1283      F1290   1.358       .  S
C1284      C1285   1.409       .  A
C1284      F1289   1.358       .  S
C1285      C1286   1.409   1_565  A
C1286      F1287   1.358       .  S
C1291      C1292   1.408       .  A
C1291      C1296   1.408       .  A
C1291      F1298   1.358       .  S
C1292      C1293   1.405       .  A
C1293      C1294   1.394       .  A
C1293      F1300   1.358       .  S
C1294      C1295   1.407       .  A
C1294      F1299   1.357   1_545  S
C1295      C1296   1.413       .  A
C1296      F1297   1.358       .  S
C1301      C1302   1.409   1_565  A
C1301      C1306   1.398   1_655  A
C1301      F1308   1.358       .  S
C1302      C1303   1.408       .  A
C1303      C1304   1.399   1_655  A
C1303      F1310   1.358       .  S
C1304      C1305   1.408       .  A
C1304      F1309   1.358       .  S
C1305      C1306   1.408   1_545  A
C1306      F1307   1.358       .  S
C1311      C1312   1.409       .  A
C1311      C1316   1.402       .  A
C1311      F1318   1.358       .  S
C1312      C1313   1.407       .  A
C1313      C1314   1.400       .  A
C1313      F1320   1.358       .  S
C1314      C1315   1.409       .  A
C1314      F1319   1.358       .  S
C1315      C1316   1.410       .  A
C1316      F1317   1.358       .  S
C1321      C1322   1.409   1_565  A
C1321      C1326   1.399       .  A
C1321      F1328   1.358       .  S
C1322      C1323   1.409       .  A
C1323      C1324   1.400       .  A
C1323      F1330   1.357       .  S
C1324      C1325   1.406       .  A
C1324      F1329   1.357       .  S
C1325      C1326   1.409   1_545  A
C1326      F1327   1.359       .  S
C1331      C1332   1.410       .  A
C1331      C1336   1.405       .  A
C1331      F1338   1.358       .  S
C1332      C1333   1.407       .  A
C1333      C1334   1.390       .  A
C1333      F1340   1.358   1_565  S
C1334      C1335   1.404       .  A
C1334      F1339   1.358   1_565  S
C1335      C1336   1.408       .  A
C1336      F1337   1.358       .  S
C1341      C1342   1.405       .  A
C1341      C1346   1.399       .  A
C1341      F1348   1.357       .  S
C1342      C1343   1.408       .  A
C1343      C1344   1.396       .  A
C1343      F1350   1.358       .  S
C1344      C1345   1.406       .  A
C1344      F1349   1.358       .  S
C1345      C1346   1.408       .  A
C1346      F1347   1.358       .  S
C1351      C1352   1.409       .  A
C1351      C1356   1.404       .  A
C1351      F1358   1.358       .  S
C1352      C1353   1.406       .  A
C1353      C1354   1.391       .  A
C1353      F1360   1.358       .  S
C1354      C1355   1.409       .  A
C1354      F1359   1.358       .  S
C1355      C1356   1.408       .  A
C1356      F1357   1.358       .  S
C1361      C1362   1.406       .  A
C1361      C1366   1.398       .  A
C1361      F1368   1.358       .  S
C1362      C1363   1.409       .  A
C1363      C1364   1.400       .  A
C1363      F1370   1.358       .  S
C1364      C1365   1.408       .  A
C1364      F1369   1.358       .  S
C1365      C1366   1.410       .  A
C1366      F1367   1.358       .  S
C1371      C1372   1.411       .  A
C1371      C1376   1.407       .  A
C1371      F1378   1.358       .  S
C1372      C1373   1.408       .  A
C1373      C1374   1.396       .  A
C1373      F1380   1.357       .  S
C1374      C1375   1.407       .  A
C1374      F1379   1.358       .  S
C1375      C1376   1.411       .  A
C1376      F1377   1.358       .  S
C1381      C1382   1.407       .  A
C1381      C1386   1.402       .  A
C1381      F1388   1.358       .  S
C1382      C1383   1.408       .  A
C1383      C1384   1.399       .  A
C1383      F1390   1.358       .  S
C1384      C1385   1.408       .  A
C1384      F1389   1.358       .  S
C1385      C1386   1.409       .  A
C1386      F1387   1.358       .  S
C1391      C1392   1.407       .  A
C1391      C1396   1.401       .  A
C1391      F1398   1.358       .  S
C1392      C1393   1.403       .  A
C1393      C1394   1.394       .  A
C1393      F1400   1.359       .  S
C1394      C1395   1.411       .  A
C1394      F1399   1.358       .  S
C1395      C1396   1.408       .  A
C1396      F1397   1.357       .  S
C1401      C1402   1.405       .  A
C1401      C1406   1.399       .  A
C1401      F1408   1.358       .  S
C1402      C1403   1.406       .  A
C1403      C1404   1.395       .  A
C1403      F1410   1.358       .  S
C1404      C1405   1.407       .  A
C1404      F1409   1.358       .  S
C1405      C1406   1.411       .  A
C1406      F1407   1.358       .  S
C1411      C1412   1.409       .  A
C1411      C1416   1.404       .  A
C1411      F1418   1.358       .  S
C1412      C1413   1.405       .  A
C1413      C1414   1.392       .  A
C1413      F1420   1.358       .  S
C1414      C1415   1.408       .  A
C1414      F1419   1.358       .  S
C1415      C1416   1.409       .  A
C1416      F1417   1.358       .  S
C1421      C1422   1.408       .  A
C1421      C1426   1.393       .  A
C1421      F1428   1.358       .  S
C1422      C1423   1.408       .  A
C1423      C1424   1.404       .  A
C1423      F1430   1.358       .  S
C1424      C1425   1.410       .  A
C1424      F1429   1.358       .  S
C1425      C1426   1.406       .  A
C1426      F1427   1.358       .  S
C1431      C1432   1.407       .  A
C1431      C1436   1.403       .  A
C1431      F1438   1.357       .  S
C1432      C1433   1.410       .  A
C1433      C1434   1.395       .  A
C1433      F1440   1.358       .  S
C1434      C1435   1.406       .  A
C1434      F1439   1.358       .  S
C1435      C1436   1.410       .  A
C1436      F1437   1.358       .  S
C1441      C1442   1.407       .  A
C1441      C1446   1.396   1_655  A
C1441      F1448   1.358       .  S
C1442      C1443   1.409       .  A
C1443      C1444   1.400   1_655  A
C1443      F1450   1.358       .  S
C1444      C1445   1.409       .  A
C1444      F1449   1.358       .  S
C1445      C1446   1.407       .  A
C1446      F1447   1.358       .  S
C1451      C1452   1.408       .  A
C1451      C1456   1.396       .  A
C1451      F1458   1.358       .  S
C1452      C1453   1.410       .  A
C1453      C1454   1.406       .  A
C1453      F1460   1.358       .  S
C1454      C1455   1.411       .  A
C1454      F1459   1.358       .  S
C1455      C1456   1.408       .  A
C1456      F1457   1.357       .  S
C1461      C1462   1.406       .  A
C1461      C1466   1.400       .  A
C1461      F1468   1.357       .  S
C1462      C1463   1.408       .  A
C1463      C1464   1.397       .  A
C1463      F1470   1.358       .  S
C1464      C1465   1.407       .  A
C1464      F1469   1.359       .  S
C1465      C1466   1.407       .  A
C1466      F1467   1.357       .  S
C1471      C1472   1.407       .  A
C1471      C1476   1.400       .  A
C1471      F1478   1.358       .  S
C1472      C1473   1.407       .  A
C1473      C1474   1.390       .  A
C1473      F1480   1.358       .  S
C1474      C1475   1.405       .  A
C1474      F1479   1.358       .  S
C1475      C1476   1.409       .  A
C1476      F1477   1.358       .  S
C1481      C1482   1.409       .  A
C1481      C1486   1.407       .  A
C1481      F1488   1.358       .  S
C1482      C1483   1.409       .  A
C1483      C1484   1.394       .  A
C1483      F1490   1.358       .  S
C1484      C1485   1.406       .  A
C1484      F1489   1.357       .  S
C1485      C1486   1.413       .  A
C1486      F1487   1.358       .  S
C1491      C1492   1.407       .  A
C1491      C1496   1.399       .  A
C1491      F1498   1.358       .  S
C1492      C1493   1.407       .  A
C1493      C1494   1.393       .  A
C1493      F1500   1.358       .  S
C1494      C1495   1.406       .  A
C1494      F1499   1.358       .  S
C1495      C1496   1.406       .  A
C1496      F1497   1.358       .  S
C1501      C1502   1.408       .  A
C1501      C1506   1.401       .  A
C1501      F1508   1.358       .  S
C1502      C1503   1.407       .  A
C1503      C1504   1.393       .  A
C1503      F1510   1.358       .  S
C1504      C1505   1.407       .  A
C1504      F1509   1.358       .  S
C1505      C1506   1.409       .  A
C1506      F1507   1.358       .  S
C1511      C1512   1.410       .  A
C1511      C1516   1.393       .  A
C1511      F1518   1.358       .  S
C1512      C1513   1.408       .  A
C1513      C1514   1.402       .  A
C1513      F1520   1.358       .  S
C1514      C1515   1.409       .  A
C1514      F1519   1.358       .  S
C1515      C1516   1.403       .  A
C1516      F1517   1.358       .  S
C1521      C1522   1.408       .  A
C1521      C1526   1.397   1_655  A
C1521      F1528   1.358       .  S
C1522      C1523   1.407       .  A
C1523      C1524   1.395   1_655  A
C1523      F1530   1.358       .  S
C1524      C1525   1.407       .  A
C1524      F1529   1.358       .  S
C1525      C1526   1.407       .  A
C1526      F1527   1.358       .  S
C1531      C1532   1.410       .  A
C1531      C1536   1.404       .  A
C1531      F1538   1.358       .  S
C1532      C1533   1.407       .  A
C1533      C1534   1.396       .  A
C1533      F1540   1.358       .  S
C1534      C1535   1.408       .  A
C1534      F1539   1.358       .  S
C1535      C1536   1.409       .  A
C1536      F1537   1.358       .  S
C1541      C1542   1.407       .  A
C1541      C1546   1.392       .  A
C1541      F1548   1.358       .  S
C1542      C1543   1.411       .  A
C1543      C1544   1.406       .  A
C1543      F1550   1.358       .  S
C1544      C1545   1.408       .  A
C1544      F1549   1.358       .  S
C1545      C1546   1.406       .  A
C1546      F1547   1.358       .  S
C1551      C1552   1.409       .  A
C1551      C1556   1.403       .  A
C1551      F1558   1.358       .  S
C1552      C1553   1.407       .  A
C1553      C1554   1.395       .  A
C1553      F1560   1.358       .  S
C1554      C1555   1.407       .  A
C1554      F1559   1.358       .  S
C1555      C1556   1.407       .  A
C1556      F1557   1.358       .  S
C1561      C1562   1.409       .  A
C1561      C1566   1.401       .  A
C1561      F1568   1.358       .  S
C1562      C1563   1.408       .  A
C1563      C1564   1.401       .  A
C1563      F1570   1.358       .  S
C1564      C1565   1.410       .  A
C1564      F1569   1.358       .  S
C1565      C1566   1.408       .  A
C1566      F1567   1.358       .  S
C1571      C1572   1.408       .  A
C1571      C1576   1.400       .  A
C1571      F1578   1.358       .  S
C1572      C1573   1.409       .  A
C1573      C1574   1.406       .  A
C1573      F1580   1.358       .  S
C1574      C1575   1.411       .  A
C1574      F1579   1.358       .  S
C1575      C1576   1.409       .  A
C1576      F1577   1.358       .  S
C1581      C1582   1.407       .  A
C1581      C1586   1.395       .  A
C1581      F1588   1.358       .  S
C1582      C1583   1.408       .  A
C1583      C1584   1.399       .  A
C1583      F1590   1.358       .  S
C1584      C1585   1.408       .  A
C1584      F1589   1.358       .  S
C1585      C1586   1.408       .  A
C1586      F1587   1.358       .  S
C1591      C1592   1.408       .  A
C1591      C1596   1.400       .  A
C1591      F1598   1.358       .  S
C1592      C1593   1.408       .  A
C1593      C1594   1.397       .  A
C1593      F1600   1.358       .  S
C1594      C1595   1.407       .  A
C1594      F1599   1.358       .  S
C1595      C1596   1.409       .  A
C1596      F1597   1.358       .  S
C1601      C1602   1.408       .  A
C1601      C1606   1.399       .  A
C1601      F1608   1.358       .  S
C1602      C1603   1.408       .  A
C1603      C1604   1.401       .  A
C1603      F1610   1.358       .  S
C1604      C1605   1.409       .  A
C1604      F1609   1.358       .  S
C1605      C1606   1.410       .  A
C1606      F1607   1.358       .  S
C1611      C1612   1.410       .  A
C1611      C1616   1.401       .  A
C1611      F1618   1.358       .  S
C1612      C1613   1.406       .  A
C1613      C1614   1.396       .  A
C1613      F1620   1.358       .  S
C1614      C1615   1.411       .  A
C1614      F1619   1.358       .  S
C1615      C1616   1.406       .  A
C1616      F1617   1.357       .  S
C1621      C1622   1.407       .  A
C1621      C1626   1.398       .  A
C1621      F1628   1.358       .  S
C1622      C1623   1.404       .  A
C1623      C1624   1.392       .  A
C1623      F1630   1.358       .  S
C1624      C1625   1.407       .  A
C1624      F1629   1.358   1_565  S
C1625      C1626   1.407       .  A
C1626      F1627   1.358       .  S
C1631      C1632   1.413       .  A
C1631      C1636   1.407       .  A
C1631      F1638   1.358       .  S
C1632      C1633   1.406       .  A
C1633      C1634   1.391       .  A
C1633      F1640   1.358       .  S
C1634      C1635   1.406       .  A
C1634      F1639   1.358       .  S
C1635      C1636   1.407       .  A
C1636      F1637   1.358       .  S
C1641      C1642   1.408       .  A
C1641      C1646   1.394       .  A
C1641      F1648   1.358       .  S
C1642      C1643   1.407       .  A
C1643      C1644   1.401       .  A
C1643      F1650   1.358       .  S
C1644      C1645   1.409       .  A
C1644      F1649   1.358       .  S
C1645      C1646   1.407       .  A
C1646      F1647   1.358       .  S
C1651      C1652   1.411       .  A
C1651      C1656   1.404       .  A
C1651      F1658   1.358       .  S
C1652      C1653   1.408       .  A
C1653      C1654   1.399       .  A
C1653      F1660   1.357       .  S
C1654      C1655   1.408       .  A
C1654      F1659   1.358       .  S
C1655      C1656   1.410       .  A
C1656      F1657   1.358       .  S
C1661      C1662   1.407       .  A
C1661      C1666   1.395       .  A
C1661      F1668   1.358       .  S
C1662      C1663   1.410       .  A
C1663      C1664   1.405       .  A
C1663      F1670   1.358       .  S
C1664      C1665   1.409       .  A
C1664      F1669   1.357       .  S
C1665      C1666   1.409       .  A
C1666      F1667   1.358       .  S
C1671      C1672   1.411       .  A
C1671      C1676   1.400       .  A
C1671      F1678   1.358       .  S
C1672      C1673   1.409       .  A
C1673      C1674   1.404       .  A
C1673      F1680   1.357       .  S
C1674      C1675   1.408       .  A
C1674      F1679   1.357       .  S
C1675      C1676   1.409       .  A
C1676      F1677   1.358       .  S
C1681      C1682   1.408       .  A
C1681      C1686   1.397       .  A
C1681      F1688   1.358       .  S
C1682      C1683   1.407       .  A
C1683      C1684   1.395       .  A
C1683      F1690   1.358       .  S
C1684      C1685   1.407       .  A
C1684      F1689   1.358       .  S
C1685      C1686   1.407       .  A
C1686      F1687   1.358       .  S
C1691      C1692   1.408       .  A
C1691      C1696   1.394       .  A
C1691      F1698   1.358       .  S
C1692      C1693   1.408       .  A
C1693      C1694   1.400       .  A
C1693      F1700   1.358       .  S
C1694      C1695   1.409       .  A
C1694      F1699   1.358       .  S
C1695      C1696   1.407       .  A
C1696      F1697   1.358       .  S
C1701      C1702   1.409       .  A
C1701      C1706   1.400       .  A
C1701      F1708   1.358   1_565  S
C1702      C1703   1.406       .  A
C1703      C1704   1.394       .  A
C1703      F1710   1.358       .  S
C1704      C1705   1.409       .  A
C1704      F1709   1.358       .  S
C1705      C1706   1.406       .  A
C1706      F1707   1.358       .  S
C1711      C1712   1.404       .  A
C1711      C1716   1.386       .  A
C1711      F1718   1.358       .  S
C1712      C1713   1.409       .  A
C1713      C1714   1.404       .  A
C1713      F1720   1.358       .  S
C1714      C1715   1.409       .  A
C1714      F1719   1.358       .  S
C1715      C1716   1.408       .  A
C1716      F1717   1.358       .  S
C1721      C1722   1.408       .  A
C1721      C1726   1.398       .  A
C1721      F1728   1.358       .  S
C1722      C1723   1.410       .  A
C1723      C1724   1.400       .  A
C1723      F1730   1.358       .  S
C1724      C1725   1.407       .  A
C1724      F1729   1.358       .  S
C1725      C1726   1.409       .  A
C1726      F1727   1.358       .  S
C1731      C1732   1.410       .  A
C1731      C1736   1.406       .  A
C1731      F1738   1.358       .  S
C1732      C1733   1.407       .  A
C1733      C1734   1.396       .  A
C1733      F1740   1.358       .  S
C1734      C1735   1.408       .  A
C1734      F1739   1.357       .  S
C1735      C1736   1.411       .  A
C1736      F1737   1.358       .  S
C1741      C1742   1.407       .  A
C1741      C1746   1.400       .  A
C1741      F1748   1.357       .  S
C1742      C1743   1.410       .  A
C1743      C1744   1.401       .  A
C1743      F1750   1.358       .  S
C1744      C1745   1.409       .  A
C1744      F1749   1.359       .  S
C1745      C1746   1.407       .  A
C1746      F1747   1.357       .  S
C1751      C1752   1.408       .  A
C1751      C1756   1.401       .  A
C1751      F1758   1.358       .  S
C1752      C1753   1.405       .  A
C1753      C1754   1.397       .  A
C1753      F1760   1.358       .  S
C1754      C1755   1.409       .  A
C1754      F1759   1.358       .  S
C1755      C1756   1.407       .  A
C1756      F1757   1.358       .  S
C1761      C1762   1.407       .  A
C1761      C1766   1.392       .  A
C1761      F1768   1.358       .  S
C1762      C1763   1.407       .  A
C1763      C1764   1.406       .  A
C1763      F1770   1.357       .  S
C1764      C1765   1.410       .  A
C1764      F1769   1.358       .  S
C1765      C1766   1.406       .  A
C1766      F1767   1.358       .  S
C1771      C1772   1.409       .  A
C1771      C1776   1.405       .  A
C1771      F1778   1.358       .  S
C1772      C1773   1.406       .  A
C1773      C1774   1.399       .  A
C1773      F1780   1.358       .  S
C1774      C1775   1.408       .  A
C1774      F1779   1.358       .  S
C1775      C1776   1.408       .  A
C1776      F1777   1.358       .  S
C1781      C1782   1.406       .  A
C1781      C1786   1.396       .  A
C1781      F1788   1.359       .  S
C1782      C1783   1.404       .  A
C1783      C1784   1.395       .  A
C1783      F1790   1.357       .  S
C1784      C1785   1.406       .  A
C1784      F1789   1.357       .  S
C1785      C1786   1.409       .  A
C1786      F1787   1.359   1_565  S
C1791      C1792   1.407       .  A
C1791      C1796   1.397       .  A
C1791      F1798   1.358       .  S
C1792      C1793   1.409       .  A
C1793      C1794   1.400       .  A
C1793      F1800   1.357       .  S
C1794      C1795   1.406       .  A
C1794      F1799   1.357       .  S
C1795      C1796   1.411       .  A
C1796      F1797   1.358       .  S
C1801      C1802   1.409       .  A
C1801      C1806   1.401       .  A
C1801      F1808   1.358       .  S
C1802      C1803   1.408       .  A
C1803      C1804   1.399       .  A
C1803      F1810   1.358       .  S
C1804      C1805   1.410       .  A
C1804      F1809   1.358       .  S
C1805      C1806   1.407       .  A
C1806      F1807   1.358       .  S
C1811      C1812   1.408       .  A
C1811      C1816   1.401       .  A
C1811      F1818   1.358       .  S
C1812      C1813   1.407       .  A
C1813      C1814   1.398       .  A
C1813      F1820   1.358       .  S
C1814      C1815   1.409       .  A
C1814      F1819   1.358       .  S
C1815      C1816   1.409       .  A
C1816      F1817   1.358       .  S
C1821      C1822   1.411       .  A
C1821      C1826   1.408       .  A
C1821      F1828   1.357       .  S
C1822      C1823   1.408       .  A
C1823      C1824   1.397       .  A
C1823      F1830   1.358       .  S
C1824      C1825   1.409       .  A
C1824      F1829   1.358       .  S
C1825      C1826   1.410       .  A
C1826      F1827   1.358       .  S
C1831      C1832   1.413       .  A
C1831      C1836   1.411       .  A
C1831      F1838   1.358       .  S
C1832      C1833   1.406       .  A
C1833      C1834   1.394       .  A
C1833      F1840   1.357       .  S
C1834      C1835   1.408       .  A
C1834      F1839   1.357       .  S
C1835      C1836   1.412       .  A
C1836      F1837   1.358       .  S
C1841      C1842   1.406       .  A
C1841      C1846   1.401       .  A
C1841      F1848   1.357       .  S
C1842      C1843   1.411       .  A
C1843      C1844   1.403       .  A
C1843      F1850   1.359       .  S
C1844      C1845   1.409       .  A
C1844      F1849   1.358       .  S
C1845      C1846   1.408       .  A
C1846      F1847   1.357       .  S
C1851      C1852   1.411       .  A
C1851      C1856   1.406       .  A
C1851      F1858   1.358       .  S
C1852      C1853   1.405       .  A
C1853      C1854   1.392       .  A
C1853      F1860   1.358       .  S
C1854      C1855   1.410       .  A
C1854      F1859   1.358       .  S
C1855      C1856   1.408       .  A
C1856      F1857   1.358       .  S
C1861      C1862   1.409       .  A
C1861      C1866   1.398       .  A
C1861      F1868   1.358       .  S
C1862      C1863   1.411       .  A
C1863      C1864   1.404       .  A
C1863      F1870   1.357       .  S
C1864      C1865   1.406       .  A
C1864      F1869   1.357       .  S
C1865      C1866   1.408       .  A
C1866      F1867   1.359       .  S
C1871      C1872   1.409       .  A
C1871      C1876   1.401       .  A
C1871      F1878   1.357       .  S
C1872      C1873   1.407       .  A
C1873      C1874   1.395       .  A
C1873      F1880   1.358       .  S
C1874      C1875   1.410       .  A
C1874      F1879   1.359       .  S
C1875      C1876   1.406       .  A
C1876      F1877   1.357       .  S
C1881      C1882   1.410       .  A
C1881      C1886   1.400       .  A
C1881      F1888   1.358       .  S
C1882      C1883   1.407       .  A
C1883      C1884   1.398       .  A
C1883      F1890   1.358       .  S
C1884      C1885   1.410       .  A
C1884      F1889   1.358       .  S
C1885      C1886   1.407       .  A
C1886      F1887   1.358       .  S
C1891      C1892   1.411       .  A
C1891      C1896   1.403       .  A
C1891      F1898   1.358       .  S
C1892      C1893   1.409       .  A
C1893      C1894   1.401       .  A
C1893      F1900   1.357       .  S
C1894      C1895   1.409       .  A
C1894      F1899   1.358       .  S
C1895      C1896   1.409       .  A
C1896      F1897   1.358       .  S
C1901      C1902   1.407       .  A
C1901      C1906   1.396       .  A
C1901      F1908   1.358       .  S
C1902      C1903   1.409       .  A
C1903      C1904   1.399       .  A
C1903      F1910   1.358       .  S
C1904      C1905   1.407       .  A
C1904      F1909   1.358       .  S
C1905      C1906   1.408       .  A
C1906      F1907   1.358       .  S
C1911      C1912   1.411       .  A
C1911      C1916   1.403       .  A
C1911      F1918   1.358       .  S
C1912      C1913   1.407       .  A
C1913      C1914   1.396       .  A
C1913      F1920   1.358       .  S
C1914      C1915   1.408       .  A
C1914      F1919   1.358       .  S
C1915      C1916   1.407       .  A
C1916      F1917   1.358       .  S
C1921      C1922   1.410       .  A
C1921      C1926   1.402       .  A
C1921      F1928   1.358       .  S
C1922      C1923   1.408       .  A
C1923      C1924   1.397       .  A
C1923      F1930   1.358       .  S
C1924      C1925   1.407       .  A
C1924      F1929   1.358       .  S
C1925      C1926   1.408       .  A
C1926      F1927   1.358       .  S
C1931      C1932   1.410       .  A
C1931      C1936   1.403       .  A
C1931      F1938   1.358       .  S
C1932      C1933   1.410       .  A
C1933      C1934   1.399       .  A
C1933      F1940   1.357       .  S
C1934      C1935   1.405       .  A
C1934      F1939   1.358       .  S
C1935      C1936   1.409       .  A
C1936      F1937   1.358       .  S
C1941      C1942   1.409       .  A
C1941      C1946   1.404       .  A
C1941      F1948   1.357       .  S
C1942      C1943   1.409       .  A
C1943      C1944   1.401       .  A
C1943      F1950   1.358       .  S
C1944      C1945   1.410       .  A
C1944      F1949   1.358       .  S
C1945      C1946   1.409       .  A
C1946      F1947   1.357       .  S
C1951      C1952   1.409       .  A
C1951      C1956   1.400       .  A
C1951      F1958   1.358       .  S
C1952      C1953   1.410       .  A
C1953      C1954   1.406       .  A
C1953      F1960   1.358       .  S
C1954      C1955   1.410       .  A
C1954      F1959   1.358       .  S
C1955      C1956   1.409       .  A
C1956      F1957   1.358       .  S
C1961      C1962   1.409       .  A
C1961      C1966   1.400       .  A
C1961      F1968   1.358       .  S
C1962      C1963   1.407       .  A
C1963      C1964   1.393       .  A
C1963      F1970   1.358       .  S
C1964      C1965   1.407       .  A
C1964      F1969   1.358       .  S
C1965      C1966   1.408       .  A
C1966      F1967   1.358       .  S
C1971      C1972   1.407       .  A
C1971      C1976   1.404       .  A
C1971      F1978   1.357       .  S
C1972      C1973   1.408       .  A
C1973      C1974   1.393       .  A
C1973      F1980   1.358       .  S
C1974      C1975   1.405       .  A
C1974      F1979   1.358       .  S
C1975      C1976   1.410       .  A
C1976      F1977   1.358       .  S
C1981      C1982   1.406       .  A
C1981      C1986   1.397       .  A
C1981      F1988   1.358       .  S
C1982      C1983   1.406       .  A
C1983      C1984   1.399       .  A
C1983      F1990   1.358       .  S
C1984      C1985   1.410       .  A
C1984      F1989   1.358       .  S
C1985      C1986   1.406       .  A
C1986      F1987   1.357       .  S
C1991      C1992   1.411       .  A
C1991      C1996   1.397       .  A
C1991      F1998   1.359       .  S
C1992      C1993   1.405       .  A
C1993      C1994   1.399       .  A
C1993      F2000   1.357       .  S
C1994      C1995   1.409       .  A
C1994      F1999   1.357       .  S
C1995      C1996   1.407       .  A
C1996      F1997   1.358       .  S
C2001      C2002   1.408       .  A
C2001      C2006   1.395       .  A
C2001      F2008   1.358       .  S
C2002      C2003   1.408       .  A
C2003      C2004   1.399       .  A
C2003      F2010   1.358       .  S
C2004      C2005   1.408       .  A
C2004      F2009   1.358       .  S
C2005      C2006   1.407       .  A
C2006      F2007   1.358       .  S
C2011      C2012   1.409       .  A
C2011      C2016   1.396       .  A
C2011      F2018   1.358       .  S
C2012      C2013   1.408       .  A
C2013      C2014   1.398       .  A
C2013      F2020   1.358       .  S
C2014      C2015   1.407       .  A
C2014      F2019   1.358       .  S
C2015      C2016   1.405       .  A
C2016      F2017   1.358       .  S
C2021      C2022   1.406       .  A
C2021      C2026   1.393       .  A
C2021      F2028   1.358       .  S
C2022      C2023   1.408       .  A
C2023      C2024   1.403       .  A
C2023      F2030   1.358   1_556  S
C2024      C2025   1.407       .  A
C2024      F2029   1.358       .  S
C2025      C2026   1.405       .  A
C2026      F2027   1.358       .  S
C2031      C2032   1.407       .  A
C2031      C2036   1.394       .  A
C2031      F2038   1.358       .  S
C2032      C2033   1.410       .  A
C2033      C2034   1.405       .  A
C2033      F2040   1.358       .  S
C2034      C2035   1.410       .  A
C2034      F2039   1.358       .  S
C2035      C2036   1.407       .  A
C2036      F2037   1.358       .  S
C2041      C2042   1.408       .  A
C2041      C2046   1.397       .  A
C2041      F2048   1.358       .  S
C2042      C2043   1.407       .  A
C2043      C2044   1.398       .  A
C2043      F2050   1.358       .  S
C2044      C2045   1.409       .  A
C2044      F2049   1.358       .  S
C2045      C2046   1.408       .  A
C2046      F2047   1.358       .  S
C2051      C2052   1.409       .  A
C2051      C2056   1.402       .  A
C2051      F2058   1.357       .  S
C2052      C2053   1.409       .  A
C2053      C2054   1.401       .  A
C2053      F2060   1.358       .  S
C2054      C2055   1.410       .  A
C2054      F2059   1.358       .  S
C2055      C2056   1.408       .  A
C2056      F2057   1.357       .  S
C2061      C2062   1.408       .  A
C2061      C2066   1.400       .  A
C2061      F2068   1.357       .  S
C2062      C2063   1.409       .  A
C2063      C2064   1.397       .  A
C2063      F2070   1.358       .  S
C2064      C2065   1.410       .  A
C2064      F2069   1.359       .  S
C2065      C2066   1.407       .  A
C2066      F2067   1.357       .  S
C2071      C2072   1.409       .  A
C2071      C2076   1.400       .  A
C2071      F2078   1.358       .  S
C2072      C2073   1.406       .  A
C2073      C2074   1.391       .  A
C2073      F2080   1.358       .  S
C2074      C2075   1.407       .  A
C2074      F2079   1.358       .  S
C2075      C2076   1.407       .  A
C2076      F2077   1.358       .  S
C2081      C2082   1.405       .  A
C2081      C2086   1.404       .  A
C2081      F2088   1.358       .  S
C2082      C2083   1.408       .  A
C2083      C2084   1.394       .  A
C2083      F2090   1.359       .  S
C2084      C2085   1.406       .  A
C2084      F2089   1.358       .  S
C2085      C2086   1.411       .  A
C2086      F2087   1.357       .  S
C2091      C2092   1.409       .  A
C2091      C2096   1.395       .  A
C2091      F2098   1.358       .  S
C2092      C2093   1.407       .  A
C2093      C2094   1.400       .  A
C2093      F2100   1.357       .  S
C2094      C2095   1.408       .  A
C2094      F2099   1.358       .  S
C2095      C2096   1.406       .  A
C2096      F2097   1.358       .  S
C2101      C2102   1.406       .  A
C2101      C2106   1.399       .  A
C2101      F2108   1.358       .  S
C2102      C2103   1.409       .  A
C2103      C2104   1.391       .  A
C2103      F2110   1.358       .  S
C2104      C2105   1.404       .  A
C2104      F2109   1.358       .  S
C2105      C2106   1.408       .  A
C2106      F2107   1.358       .  S
C2111      C2112   1.406       .  A
C2111      C2116   1.402       .  A
C2111      F2118   1.358       .  S
C2112      C2113   1.408       .  A
C2113      C2114   1.397       .  A
C2113      F2120   1.358       .  S
C2114      C2115   1.408       .  A
C2114      F2119   1.358       .  S
C2115      C2116   1.410       .  A
C2116      F2117   1.357       .  S
C2121      C2122   1.407       .  A
C2121      C2126   1.400       .  A
C2121      F2128   1.358       .  S
C2122      C2123   1.405       .  A
C2123      C2124   1.395       .  A
C2123      F2130   1.358       .  S
C2124      C2125   1.405       .  A
C2124      F2129   1.358       .  S
C2125      C2126   1.406       .  A
C2126      F2127   1.358       .  S
C2131      C2132   1.409       .  A
C2131      C2136   1.397       .  A
C2131      F2138   1.358       .  S
C2132      C2133   1.406       .  A
C2133      C2134   1.395       .  A
C2133      F2140   1.358       .  S
C2134      C2135   1.408       .  A
C2134      F2139   1.358       .  S
C2135      C2136   1.407       .  A
C2136      F2137   1.358       .  S
C2141      C2142   1.408       .  A
C2141      C2146   1.402       .  A
C2141      F2148   1.358       .  S
C2142      C2143   1.407       .  A
C2143      C2144   1.392       .  A
C2143      F2150   1.358       .  S
C2144      C2145   1.407       .  A
C2144      F2149   1.358   1_565  S
C2145      C2146   1.409       .  A
C2146      F2147   1.358       .  S
C2151      C2152   1.411       .  A
C2151      C2156   1.394       .  A
C2151      F2158   1.358       .  S
C2152      C2153   1.407       .  A
C2153      C2154   1.404       .  A
C2153      F2160   1.358       .  S
C2154      C2155   1.412       .  A
C2154      F2159   1.358       .  S
C2155      C2156   1.405       .  A
C2156      F2157   1.358       .  S
C2161      C2162   1.407       .  A
C2161      C2166   1.395       .  A
C2161      F2168   1.358       .  S
C2162      C2163   1.407       .  A
C2163      C2164   1.396       .  A
C2163      F2170   1.358       .  S
C2164      C2165   1.407       .  A
C2164      F2169   1.358       .  S
C2165      C2166   1.407       .  A
C2166      F2167   1.358   1_565  S
C2171      C2172   1.404       .  A
C2171      C2176   1.392       .  A
C2171      F2178   1.358       .  S
C2172      C2173   1.410       .  A
C2173      C2174   1.403       .  A
C2173      F2180   1.358       .  S
C2174      C2175   1.406       .  A
C2174      F2179   1.357       .  S
C2175      C2176   1.410       .  A
C2176      F2177   1.358       .  S
C2181      C2182   1.407       .  A
C2181      C2186   1.396       .  A
C2181      F2188   1.358       .  S
C2182      C2183   1.409   1_545  A
C2183      C2184   1.399       .  A
C2183      F2190   1.358       .  S
C2184      C2185   1.408   1_565  A
C2184      F2189   1.358       .  S
C2185      C2186   1.408       .  A
C2186      F2187   1.358       .  S
C2191      C2192   1.410       .  A
C2191      C2196   1.401       .  A
C2191      F2198   1.358       .  S
C2192      C2193   1.409       .  A
C2193      C2194   1.401       .  A
C2193      F2200   1.358       .  S
C2194      C2195   1.408       .  A
C2194      F2199   1.358       .  S
C2195      C2196   1.409       .  A
C2196      F2197   1.358       .  S
C2201      C2202   1.408       .  A
C2201      C2206   1.400       .  A
C2201      F2208   1.358       .  S
C2202      C2203   1.409       .  A
C2203      C2204   1.403       .  A
C2203      F2210   1.358       .  S
C2204      C2205   1.411       .  A
C2204      F2209   1.358       .  S
C2205      C2206   1.409       .  A
C2206      F2207   1.358       .  S
C2211      C2212   1.406       .  A
C2211      C2216   1.400       .  A
C2211      F2218   1.357       .  S
C2212      C2213   1.407       .  A
C2213      C2214   1.400   1_545  A
C2213      F2220   1.358   1_545  S
C2214      C2215   1.409   1_565  A
C2214      F2219   1.358       .  S
C2215      C2216   1.408       .  A
C2216      F2217   1.357       .  S
C2221      C2222   1.407       .  A
C2221      C2226   1.399       .  A
C2221      F2228   1.357       .  S
C2222      C2223   1.408       .  A
C2223      C2224   1.397       .  A
C2223      F2230   1.358   1_545  S
C2224      C2225   1.409       .  A
C2224      F2229   1.358       .  S
C2225      C2226   1.407       .  A
C2226      F2227   1.357       .  S
C2231      C2232   1.406       .  A
C2231      C2236   1.400       .  A
C2231      F2238   1.358       .  S
C2232      C2233   1.410       .  A
C2233      C2234   1.392       .  A
C2233      F2240   1.358       .  S
C2234      C2235   1.405       .  A
C2234      F2239   1.358       .  S
C2235      C2236   1.409       .  A
C2236      F2237   1.358       .  S
C2241      C2242   1.406       .  A
C2241      C2246   1.396       .  A
C2241      F2248   1.358       .  S
C2242      C2243   1.405       .  A
C2243      C2244   1.391       .  A
C2243      F2250   1.358   1_545  S
C2244      C2245   1.406       .  A
C2244      F2249   1.358       .  S
C2245      C2246   1.408       .  A
C2246      F2247   1.358       .  S
C2251      C2252   1.409       .  A
C2251      C2256   1.393       .  A
C2251      F2258   1.358       .  S
C2252      C2253   1.407       .  A
C2253      C2254   1.400       .  A
C2253      F2260   1.358       .  S
C2254      C2255   1.409       .  A
C2254      F2259   1.358       .  S
C2255      C2256   1.406       .  A
C2256      F2257   1.358       .  S
C2261      C2262   1.408       .  A
C2261      C2266   1.402       .  A
C2261      F2268   1.358       .  S
C2262      C2263   1.406       .  A
C2263      C2264   1.391       .  A
C2263      F2270   1.358   1_565  S
C2264      C2265   1.406       .  A
C2264      F2269   1.358   1_565  S
C2265      C2266   1.408       .  A
C2266      F2267   1.358       .  S
C2271      C2272   1.407       .  A
C2271      C2276   1.398       .  A
C2271      F2278   1.358   1_565  S
C2272      C2273   1.406       .  A
C2273      C2274   1.394       .  A
C2273      F2280   1.358       .  S
C2274      C2275   1.408       .  A
C2274      F2279   1.358       .  S
C2275      C2276   1.408       .  A
C2276      F2277   1.358   1_565  S
C2281      C2282   1.408       .  A
C2281      C2286   1.398       .  A
C2281      F2288   1.358       .  S
C2282      C2283   1.408       .  A
C2283      C2284   1.397       .  A
C2283      F2290   1.358       .  S
C2284      C2285   1.407       .  A
C2284      F2289   1.358       .  S
C2285      C2286   1.408       .  A
C2286      F2287   1.358       .  S
C2291      C2292   1.410       .  A
C2291      C2296   1.403       .  A
C2291      F2298   1.358       .  S
C2292      C2293   1.407       .  A
C2293      C2294   1.396       .  A
C2293      F2300   1.358       .  S
C2294      C2295   1.408       .  A
C2294      F2299   1.358       .  S
C2295      C2296   1.409       .  A
C2296      F2297   1.358       .  S
C2301      C2302   1.407       .  A
C2301      C2306   1.402       .  A
C2301      F2308   1.358       .  S
C2302      C2303   1.407       .  A
C2303      C2304   1.394       .  A
C2303      F2310   1.358   1_545  S
C2304      C2305   1.405       .  A
C2304      F2309   1.358   1_545  S
C2305      C2306   1.409       .  A
C2306      F2307   1.358       .  S
C2311      C2312   1.406       .  A
C2311      C2316   1.395       .  A
C2311      F2318   1.358       .  S
C2312      C2313   1.407       .  A
C2313      C2314   1.401       .  A
C2313      F2320   1.358       .  S
C2314      C2315   1.409       .  A
C2314      F2319   1.357       .  S
C2315      C2316   1.408       .  A
C2316      F2317   1.358   1_565  S
