geometry optimzed in LAMMPS
_audit_creation_date              2020-12-01 
_audit_creation_method            'lammps2cif' 
_symmetry_space_group_name_H-M    'P1' 
_symmetry_Int_Tables_number       1 
_symmetry_cell_setting            triclinic 
loop_ 
_symmetry_equiv_pos_as_xyz 
  x,y,z 
_cell_length_a                    47.07324658 
_cell_length_b                    47.22184032212021 
_cell_length_c                    46.92811262975442 
_cell_angle_alpha                 90.0850577730997 
_cell_angle_beta                  90.02532414226474 
_cell_angle_gamma                 90.1381923382287 
loop_ 
_atom_site_label 
_atom_site_type_symbol 
_atom_site_fract_x 
_atom_site_fract_y 
_atom_site_fract_z 
_atom_site_charge 
C1          C  0.57126102  0.89106298  0.68328036     0.80700
N2          N  0.54608324  0.87732864  0.68369862    -0.77600
C3          C  0.52131729  0.89132799  0.68660664     0.83200
N4          N  0.52172250  0.92004705  0.68878544    -0.77500
C5          C  0.54694172  0.93457214  0.68818151     0.83300
N6          N  0.57189704  0.91992595  0.68527957    -0.79200
C7          C  0.56856375  0.01102448  0.68486719     0.80700
N8          N  0.57057001  0.98212959  0.68591050    -0.77600
C9          C  0.54633631  0.96610334  0.68889459     0.83200
N10         N  0.52058937  0.97926612  0.69108720    -0.77500
C11         C  0.51880943  0.00794626  0.69027661     0.83300
N12         N  0.54274819  0.02334062  0.68695741    -0.79200
C13         C  0.93342132  0.70387359  0.51906423     0.80700
N14         N  0.92049928  0.70283125  0.49332491    -0.77600
C15         C  0.93545067  0.70004499  0.46898439     0.83200
N16         N  0.96418681  0.69870973  0.47039245    -0.77500
C17         C  0.97792012  0.69973407  0.49606706     0.83300
N18         N  0.96240147  0.70210169  0.52069644    -0.79200
C19         C  0.05441626  0.69285299  0.51782841     0.80700
N20         N  0.06666020  0.69374462  0.49181000    -0.77600
C21         C  0.05124981  0.69743348  0.46792919     0.83200
N22         N  0.02266966  0.69975560  0.46996732    -0.77500
C23         C  0.00949360  0.69859111  0.49585507     0.83300
N24         N  0.02550501  0.69543648  0.52015808    -0.79200
C25         C  0.55217897  0.69442024  0.35976584     0.80700
N26         N  0.52312824  0.69438443  0.35806206    -0.77600
C27         C  0.50742966  0.69065025  0.38244799     0.83200
N28         N  0.52106520  0.68669005  0.40788567    -0.77500
C29         C  0.54986310  0.68618656  0.40919603     0.83300
N30         N  0.56493741  0.69030446  0.38519737    -0.79200
C31         C  0.43073239  0.68735880  0.36045667     0.80700
N32         N  0.41832964  0.69012077  0.38630108    -0.77600
C33         C  0.43376273  0.69370767  0.41021078     0.83200
N34         N  0.46251352  0.69406352  0.40838459    -0.77500
C35         C  0.47579051  0.69142312  0.38262598     0.83300
N36         N  0.45976036  0.68826502  0.35833195    -0.79200
C37         C  0.75509943  0.52604305  0.87597208     0.80700
N38         N  0.75038232  0.52779652  0.90465986    -0.77600
C39         C  0.74778866  0.50345460  0.92040098     0.83200
N40         N  0.74922356  0.47777515  0.90704123    -0.77500
C41         C  0.75367104  0.47621778  0.87847831     0.83300
N42         N  0.75682979  0.50032526  0.86341686    -0.79200
C43         C  0.74276835  0.52941271  0.99548961     0.80700
N44         N  0.74457757  0.52937998  0.96647689    -0.77600
C45         C  0.74466696  0.50424873  0.95194807     0.83200
N46         N  0.74376752  0.47936030  0.96682988    -0.77500
C47         C  0.74231055  0.47947954  0.99581074     0.83300
N48         N  0.74185962  0.50455613  0.00975769    -0.79200
O49         O  0.65987127  0.29680257  0.71717949    -0.78000
C50         C  0.72792499  0.30713291  0.77542583     0.83100
O51         O  0.73055835  0.23871009  0.67184607    -0.79100
O52         O  0.75481843  0.22045840  0.77732137    -0.80600
O53         O  0.64841278  0.22214030  0.77961764    -0.80400
O54         O  0.63254186  0.25851359  0.72176698    -0.79000
Zn55       Zn  0.70058048  0.28255463  0.72176021     1.55700
O56         O  0.68762477  0.22825637  0.80558755    -0.80400
Cd57       Cd  0.66118264  0.22906450  0.73780081     1.59700
Cd58       Cd  0.72489679  0.21871320  0.71170768     1.59600
O59         O  0.65869908  0.19048374  0.71663461    -0.80400
O60         O  0.70093863  0.24387411  0.73646246    -1.90900
Cd61       Cd  0.71689583  0.24284326  0.77586813     1.59900
O62         O  0.70374976  0.17958045  0.70603417    -0.80300
O63         O  0.72669897  0.28350342  0.78839625    -0.79000
C64         C  0.72764749  0.26471119  0.66474504     0.83500
C65         C  0.63551087  0.28489490  0.71670568     0.83200
O66         O  0.72060124  0.30968027  0.74933407    -0.77900
C67         C  0.66121712  0.22247342  0.80354608     0.84000
O68         O  0.71824934  0.28326748  0.68215727    -0.78000
C69         C  0.67735706  0.17311229  0.70751250     0.84100
C70         C  0.77183247  0.21229508  0.75783128     0.84500
O71         O  0.76474003  0.21204916  0.73148814    -0.80500
O72         O  0.26789396  0.78176527  0.59321734    -0.78000
C73         C  0.32902403  0.71794693  0.58042200     0.83100
O74         O  0.22599632  0.70856460  0.64941249    -0.79100
O75         O  0.33043052  0.68724792  0.66751236    -0.80600
O76         O  0.32948923  0.79373750  0.66893527    -0.80400
O77         O  0.27177532  0.80848045  0.63213128    -0.79000
Zn78       Zn  0.27461787  0.74135319  0.60655869     1.55700
O79         O  0.35680968  0.75585137  0.66141557    -0.80400
Cd80       Cd  0.28837824  0.77990816  0.66121934     1.59700
Cd81       Cd  0.26461626  0.71589227  0.67033747     1.59600
O82         O  0.26607150  0.78129525  0.69929282    -0.80400
O83         O  0.28894024  0.74061270  0.64545652    -1.90900
Cd84       Cd  0.32861911  0.72561110  0.64561757     1.59900
O85         O  0.25629535  0.73607235  0.70952414    -0.80300
O86         O  0.34204098  0.71752767  0.60422848    -0.79000
C87         C  0.21972606  0.71048146  0.62299891     0.83500
C88         C  0.26677734  0.80578576  0.60556406     0.83200
O89         O  0.30293735  0.72491268  0.57860296    -0.77900
C90         C  0.35377737  0.78188218  0.66815443     0.84000
O91         O  0.23700389  0.72060736  0.60468504    -0.78000
C92         C  0.25656233  0.76234319  0.71615278     0.84100
C93         C  0.31132377  0.67018877  0.67646374     0.84500
O94         O  0.28505572  0.67696086  0.67738110    -0.80500
C95         C  0.07227862  0.51201393  0.18071112     0.80700
N96         N  0.07484460  0.48339996  0.18455778    -0.77600
C97         C  0.05077852  0.46701039  0.18608334     0.83200
N98         N  0.02469912  0.47956585  0.18442434    -0.77500
C99         C  0.02231154  0.50792276  0.18079241     0.83300
N100        N  0.04611906  0.52370962  0.17873430    -0.79200
C101        C  0.07528616  0.39168106  0.19312403     0.80700
N102        N  0.04977990  0.37836511  0.19286016    -0.77600
C103        C  0.02528603  0.39297723  0.19024619     0.83200
N104        N  0.02629449  0.42156152  0.18835112    -0.77500
C105        C  0.05161681  0.43565069  0.18869592     0.83300
N106        N  0.07643973  0.42058871  0.19075547    -0.79200
O107        O  0.83164236  0.60122274  0.21327288    -0.78000
C108        C  0.76733572  0.58944737  0.27265942     0.83100
O109        O  0.75778441  0.65740548  0.16922986    -0.79100
O110        O  0.73743170  0.67409121  0.27528526    -0.80600
O111        O  0.84439010  0.67614519  0.27325298    -0.80400
O112        O  0.85779340  0.64055310  0.21319826    -0.79000
Zn113      Zn  0.79124919  0.61491213  0.21833806     1.55700
O114        O  0.80587659  0.67081813  0.30040223    -0.80400
Cd115      Cd  0.82959519  0.66907378  0.23189955     1.59700
Cd116      Cd  0.76392271  0.67713589  0.20891157     1.59600
O117        O  0.82911548  0.70782205  0.21118058    -0.80400
O118        O  0.79027120  0.65337538  0.23256903    -1.90900
Cd119      Cd  0.77630063  0.65386785  0.27244860     1.59900
O120        O  0.78319570  0.71691103  0.20243392    -0.80300
O121        O  0.76942239  0.61292501  0.28586078    -0.79000
C122        C  0.76425885  0.63232886  0.16132276     0.83500
C123        C  0.85529717  0.61384193  0.20968549     0.83200
O124        O  0.77221881  0.58737151  0.24594342    -0.77900
C125        C  0.83216901  0.67667520  0.29751521     0.84000
O126        O  0.77544044  0.61446965  0.17830891    -0.78000
C127        C  0.80935392  0.72436692  0.20289742     0.84100
C128        C  0.71909816  0.68133638  0.25666893     0.84500
O129        O  0.72477148  0.68178183  0.23002837    -0.80500
C130        C  0.93447807  0.19103161  0.86516627     0.80700
N131        N  0.92167087  0.19085294  0.89098892    -0.77600
C132        C  0.93669220  0.19390337  0.91529409     0.83200
N133        N  0.96533069  0.19668368  0.91381080    -0.77500
C134        C  0.97885910  0.19673906  0.88807878     0.83300
N135        N  0.96329574  0.19422954  0.86350337    -0.79200
C136        C  0.05424957  0.20509100  0.86434527     0.80700
N137        N  0.06751407  0.20449450  0.88990549    -0.77600
C138        C  0.05294407  0.20098474  0.91436638     0.83200
N139        N  0.02426666  0.19846434  0.91334001    -0.77500
C140        C  0.01027084  0.19907798  0.88784584     0.83300
N141        N  0.02539299  0.20213580  0.86307572    -0.79200
O142        O  0.77146679  0.28967048  0.09395088    -0.78000
C143        C  0.82959071  0.22348515  0.08245955     0.83100
O144        O  0.72616887  0.21629108  0.15070990    -0.79100
O145        O  0.83162937  0.19354714  0.16705695    -0.80600
O146        O  0.82996954  0.30199518  0.16851740    -0.80400
O147        O  0.77088707  0.31604646  0.13326185    -0.79000
Zn148      Zn  0.77582517  0.24903118  0.10764280     1.55700
O149        O  0.85701679  0.26348956  0.16360458    -0.80400
Cd150      Cd  0.78883503  0.28729546  0.16191704     1.59700
Cd151      Cd  0.76595033  0.22194832  0.17041436     1.59600
O152        O  0.76874356  0.28696392  0.20125681    -0.80400
O153        O  0.78976906  0.24785385  0.14632568    -1.90900
Cd154      Cd  0.82935271  0.23316644  0.14720599     1.59900
O155        O  0.76067258  0.24109464  0.21067967    -0.80300
O156        O  0.84278761  0.22561998  0.10604980    -0.79000
C157        C  0.71864602  0.22252774  0.12530286     0.83500
C158        C  0.76821984  0.31351827  0.10630612     0.83200
O159        O  0.80316821  0.22930963  0.08023768    -0.77900
C160        C  0.85413444  0.28986042  0.16894619     0.84000
O161        O  0.73593220  0.23329164  0.10736383    -0.78000
C162        C  0.76115220  0.26717979  0.21816716     0.84100
C163        C  0.81226333  0.17568737  0.17357322     0.84500
O164        O  0.78601263  0.18248226  0.17434692    -0.80500
C165        C  0.43439251  0.18708840  0.02078368     0.80700
N166        N  0.42088891  0.18725430  0.99535704    -0.77600
C167        C  0.43507393  0.19174326  0.97077513     0.83200
N168        N  0.46367203  0.19565742  0.97164196    -0.77500
C169        C  0.47779513  0.19546170  0.99713236     0.83300
N170        N  0.46301238  0.19127858  0.02186927    -0.79200
C171        C  0.55256970  0.20578276  0.02160525     0.80700
N172        N  0.52393469  0.20128750  0.02235063    -0.77600
C173        C  0.50899461  0.19946726  0.99736780     0.83200
N174        N  0.52295381  0.20180238  0.97201434    -0.77500
C175        C  0.55144704  0.20620287  0.97140597     0.83300
N176        N  0.56588910  0.20843065  0.99621122    -0.79200
C177        C  0.23222910  0.87199905  0.87623966     0.80700
N178        N  0.23359723  0.89739860  0.86299426    -0.77600
C179        C  0.23639924  0.92170783  0.87784431     0.83200
N180        N  0.23735653  0.92067917  0.90670700    -0.77500
C181        C  0.23600049  0.89536480  0.92066721     0.83300
N182        N  0.23371458  0.87075021  0.90530911    -0.79200
C183        C  0.24115690  0.87315707  0.99704688     0.80700
N184        N  0.23926357  0.87129990  0.96802049    -0.77600
C185        C  0.23681708  0.89566216  0.95227900     0.83200
N186        N  0.23588041  0.92130807  0.96581600    -0.77500
C187        C  0.23742082  0.92282117  0.99463480     0.83300
N188        N  0.24025539  0.89879328  0.00974139    -0.79200
O189        O  0.32736276  0.10394730  0.71156874    -0.78000
C190        C  0.26296334  0.08945786  0.77167693     0.83100
O191        O  0.25528147  0.16031489  0.66963748    -0.79100
O192        O  0.23337315  0.17574797  0.77595179    -0.80600
O193        O  0.34006455  0.17613485  0.77643603    -0.80400
O194        O  0.35428800  0.14253766  0.71647651    -0.79000
Zn195      Zn  0.28690406  0.11673882  0.71821937     1.55700
O196        O  0.30167738  0.16875556  0.80323270    -0.80400
Cd197      Cd  0.32588756  0.17075855  0.73478837     1.59700
Cd198      Cd  0.26174209  0.17972190  0.70972278     1.59600
O199        O  0.32678402  0.21043232  0.71572304    -0.80400
O200        O  0.28653835  0.15490732  0.73389050    -1.90900
Cd201      Cd  0.27173724  0.15415289  0.77372563     1.59900
O202        O  0.28143783  0.21954090  0.70468838    -0.80300
O203        O  0.26319146  0.11276987  0.78535405    -0.79000
C204        C  0.25727683  0.13415371  0.66279325     0.83500
C205        C  0.35146145  0.11624639  0.71077250     0.83200
O206        O  0.26977082  0.08808785  0.74541920    -0.77900
C207        C  0.32796075  0.17502385  0.80069885     0.84000
O208        O  0.26696073  0.11570422  0.68004229    -0.78000
C209        C  0.30743957  0.22719051  0.70693620     0.84100
C210        C  0.21595421  0.18407477  0.75686548     0.84500
O211        O  0.22249941  0.18498185  0.73043102    -0.80500
C212        C  0.25512298  0.02815956  0.38107151     0.80700
N213        N  0.25593452  0.00324508  0.36680771    -0.77600
C214        C  0.25473663  0.97823910  0.38069883     0.83200
N215        N  0.25323346  0.97819982  0.40962391    -0.77500
C216        C  0.25254774  0.00307100  0.42455078     0.83300
N217        N  0.25307350  0.02824679  0.41010747    -0.79200
C218        C  0.24282605  0.02346550  0.50107785     0.80700
N219        N  0.24602611  0.02583120  0.47222074    -0.77600
C220        C  0.25066210  0.00196965  0.45616273     0.83200
N221        N  0.25257086  0.97621981  0.46929738    -0.77500
C222        C  0.24976357  0.97409161  0.49801634     0.83300
N223        N  0.24468133  0.99767582  0.51342735    -0.79200
O224        O  0.21200920  0.11087601  0.09455696    -0.78000
C225        C  0.15710337  0.17796467  0.08424596     0.83100
O226        O  0.26228305  0.18205389  0.14932257    -0.79100
O227        O  0.15788210  0.20822019  0.16957209    -0.80600
O228        O  0.15533539  0.10074259  0.16991149    -0.80400
O229        O  0.21338972  0.08493948  0.13403609    -0.79000
Zn230      Zn  0.20964510  0.15113246  0.10865815     1.55700
O231        O  0.12968561  0.14024372  0.16590436    -0.80400
Cd232      Cd  0.19679732  0.11384974  0.16308571     1.59700
Cd233      Cd  0.22317796  0.17814999  0.17079943     1.59600
O234        O  0.21753014  0.11292224  0.20199467    -0.80400
O235        O  0.19724132  0.15319373  0.14772183    -1.90900
Cd236      Cd  0.15832530  0.16913596  0.14912009     1.59900
O237        O  0.23052675  0.15795268  0.21007665    -0.80300
O238        O  0.14437551  0.17670325  0.10814496    -0.79000
C239        C  0.26839207  0.17442855  0.12390964     0.83500
C240        C  0.21542530  0.08723717  0.10702802     0.83200
O241        O  0.18329223  0.17164041  0.08161557    -0.77900
C242        C  0.13166578  0.11373991  0.17076370     0.84000
O243        O  0.24979365  0.16428790  0.10700336    -0.78000
C244        C  0.22801800  0.13214073  0.21802380     0.84100
C245        C  0.17761750  0.22536105  0.17682620     0.84500
O246        O  0.20382052  0.21808666  0.17703561    -0.80500
C247        C  0.91374864  0.88815020  0.17894224     0.80700
N248        N  0.93957563  0.87563183  0.17808365    -0.77600
C249        C  0.96377206  0.89097873  0.17893308     0.83200
N250        N  0.96207653  0.91963733  0.18017773    -0.77500
C251        C  0.93629077  0.93287847  0.18081561     0.83300
N252        N  0.91189202  0.91699671  0.18047269    -0.79200
C253        C  0.91254065  0.00842913  0.18627608     0.80700
N254        N  0.93803842  0.02165744  0.18479966    -0.77600
C255        C  0.96235042  0.00689097  0.18155216     0.83200
N256        N  0.96121652  0.97824982  0.18018707    -0.77500
C257        C  0.93586352  0.96431197  0.18169767     0.83300
N258        N  0.91123302  0.97951537  0.18457109    -0.79200
O259        O  0.15575333  0.79909896  0.21074969    -0.78000
C260        C  0.22109121  0.81114042  0.27431264     0.83100
O261        O  0.22911913  0.74336322  0.17011415    -0.79100
O262        O  0.24887982  0.72271421  0.27600830    -0.80600
O263        O  0.14233574  0.72631880  0.27370236    -0.80400
O264        O  0.12953895  0.75984660  0.21308075    -0.79000
Zn265      Zn  0.19649585  0.78635299  0.21902475     1.55700
O266        O  0.18084157  0.73017905  0.30118644    -0.80400
Cd267      Cd  0.15760276  0.73214452  0.23267352     1.59700
Cd268      Cd  0.22238105  0.72329246  0.20946500     1.59600
O269        O  0.15746011  0.69270121  0.21324474    -0.80400
O270        O  0.19704630  0.74768801  0.23347860    -1.90900
Cd271      Cd  0.21145487  0.74622001  0.27348402     1.59900
O272        O  0.20299376  0.68372249  0.20305174    -0.80300
O273        O  0.22081762  0.78719167  0.28689610    -0.79000
C274        C  0.22694321  0.76952975  0.16352926     0.83500
C275        C  0.13202706  0.78624748  0.20790775     0.83200
O276        O  0.21364586  0.81375530  0.24824612    -0.77900
C277        C  0.15438586  0.72512069  0.29798087     0.84000
O278        O  0.21716823  0.78789574  0.18094048    -0.78000
C279        C  0.17697484  0.67609768  0.20455674     0.84100
C280        C  0.26677363  0.71510395  0.25705182     0.84500
O281        O  0.26120988  0.71654434  0.23043083    -0.80500
C282        C  0.41571994  0.38879314  0.69100514     0.80700
N283        N  0.44110853  0.37535568  0.69107860    -0.77600
C284        C  0.46576404  0.38976896  0.69394062     0.83200
N285        N  0.46503276  0.41839415  0.69625668    -0.77500
C286        C  0.43975501  0.43254385  0.69611156     0.83300
N287        N  0.41485152  0.41760943  0.69373287    -0.79200
C288        C  0.41824497  0.50861829  0.70247222     0.80700
N289        N  0.41616607  0.47979761  0.70037371    -0.77600
C290        C  0.44040607  0.46394792  0.69778563     0.83200
N291        N  0.46620150  0.47720176  0.69662408    -0.77500
C292        C  0.46808787  0.50582654  0.69823550     0.83300
N293        N  0.44412304  0.52113596  0.70142062    -0.79200
C294        C  0.73744063  0.37376183  0.38038053     0.80700
N295        N  0.73836414  0.39932549  0.36742464    -0.77600
C296        C  0.74246460  0.42340801  0.38242934     0.83200
N297        N  0.74506077  0.42191858  0.41125956    -0.77500
C298        C  0.74387564  0.39633126  0.42487809     0.83300
N299        N  0.74046901  0.37208505  0.40923895    -0.79200
C300        C  0.74943744  0.37094386  0.50028690     0.80700
N301        N  0.74677617  0.37045633  0.47125734    -0.77600
C302        C  0.74612785  0.39552388  0.45645544     0.83200
N303        N  0.74755960  0.42057373  0.47095936    -0.77500
C304        C  0.74984104  0.42083927  0.49978326     0.83300
N305        N  0.75099066  0.39607230  0.51399572    -0.79200
O306        O  0.64760632  0.66489850  0.60015519    -0.78000
C307        C  0.63653228  0.61137833  0.66928467     0.83100
O308        O  0.69825079  0.71798233  0.67381197    -0.79100
O309        O  0.72315108  0.61486220  0.69830593    -0.80600
O310        O  0.72772963  0.61204717  0.59335473    -0.80400
O311        O  0.68740316  0.66500325  0.57454600    -0.79000
Zn312      Zn  0.66030401  0.66453548  0.64126829     1.55700
O313        O  0.72001217  0.58545335  0.63178485    -0.80400
Cd314      Cd  0.71655876  0.65259344  0.60522210     1.59700
Cd315      Cd  0.72134698  0.67994852  0.66915722     1.59600
O316        O  0.75379197  0.67595698  0.60457606    -0.80400
O317        O  0.69951989  0.65291276  0.64409578    -1.90900
Cd318      Cd  0.70129223  0.61385270  0.66005028     1.59900
O319        O  0.76104339  0.68855422  0.65001356    -0.80300
O320        O  0.66051628  0.59889007  0.66860542    -0.79000
C321        C  0.67292074  0.72373081  0.66583744     0.83500
C322        C  0.66040697  0.66638019  0.57630470     0.83200
O323        O  0.63383257  0.63726376  0.66190900    -0.77900
C324        C  0.72814971  0.58824654  0.60601880     0.84000
O325        O  0.65684774  0.70508769  0.65444886    -0.78000
C326        C  0.76934335  0.68663807  0.62411473     0.84100
C327        C  0.73013126  0.63467432  0.71547031     0.84500
O328        O  0.72851118  0.66086897  0.70881990    -0.80500
C329        C  0.75008044  0.49155322  0.52758561     0.20900
C330        C  0.74930282  0.52127349  0.52709411    -0.39000
C331        C  0.74629351  0.53456836  0.55373063     0.19800
C332        C  0.74428481  0.51942430  0.57890584     0.22500
C333        C  0.74582745  0.48981080  0.57946850    -0.39500
C334        C  0.74868776  0.47656878  0.55288724     0.21300
N335        N  0.75099032  0.47378495  0.50511095    -0.32800
C336        C  0.75022586  0.44735637  0.51634786    -0.10300
C337        C  0.74892477  0.44831704  0.54603852    -0.29200
N338        N  0.73873824  0.53671989  0.60096881    -0.45700
C339        C  0.73710141  0.56309569  0.58978489    -0.05000
C340        C  0.74208515  0.56265355  0.56044584    -0.22400
H341        H  0.74983814  0.53311910  0.50737445     0.19400
H342        H  0.74374148  0.47788574  0.59904210     0.18200
H343        H  0.74751989  0.43064818  0.56065070     0.14500
H344        H  0.74098622  0.58027295  0.54576205     0.14400
H345        H  0.75166854  0.47926590  0.48357218     0.32500
H346        H  0.73515623  0.53079915  0.62210599     0.35300
C347        C  0.52479928  0.55592553  0.69201742     0.20900
C348        C  0.53677090  0.58303312  0.68964668    -0.39000
C349        C  0.56627267  0.58397537  0.68597300     0.19800
C350        C  0.58270863  0.55974466  0.68486832     0.22500
C351        C  0.57069042  0.53249690  0.68738720    -0.39500
C352        C  0.54100971  0.53153987  0.69092020     0.21300
N353        N  0.49718937  0.54960072  0.69497725    -0.32800
C354        C  0.49547543  0.52095043  0.69573635    -0.10300
C355        C  0.52244193  0.50882402  0.69324060    -0.29200
N356        N  0.61007863  0.56645666  0.67985856    -0.45700
C357        C  0.61095111  0.59513023  0.67752526    -0.05000
C358        C  0.58402378  0.60675776  0.68139126    -0.22400
H359        H  0.52393919  0.60202002  0.69008148     0.19400
H360        H  0.58341357  0.51347787  0.68611483     0.18200
H361        H  0.52769608  0.48652541  0.69291830     0.14500
H362        H  0.57806069  0.62883391  0.67997852     0.14400
H363        H  0.48043028  0.56402735  0.69615056     0.32500
H364        H  0.62693928  0.55235559  0.67723780     0.35300
C365        C  0.02075058  0.84097996  0.18157768     0.20900
C366        C  0.03278047  0.81390381  0.18383066    -0.39000
C367        C  0.06217371  0.81313904  0.18859776     0.19800
C368        C  0.07845036  0.83749810  0.19062571     0.22500
C369        C  0.06644387  0.86465612  0.18783902    -0.39500
C370        C  0.03688730  0.86544857  0.18339422     0.21300
N371        N  0.99307585  0.84722159  0.17905100    -0.32800
C372        C  0.99127314  0.87589018  0.17939685    -0.10300
C373        C  0.01825936  0.88809214  0.18187791    -0.29200
N374        N  0.10559779  0.83103140  0.19692326    -0.45700
C375        C  0.10654972  0.80236719  0.19912665    -0.05000
C376        C  0.07985522  0.79049691  0.19389390    -0.22400
H377        H  0.01999605  0.79483440  0.18300330     0.19400
H378        H  0.07901319  0.88375676  0.19001503     0.18200
H379        H  0.02343317  0.91038584  0.18341816     0.14500
H380        H  0.07396227  0.76834709  0.19484921     0.14400
H381        H  0.97629912  0.83272658  0.17791466     0.32500
H382        H  0.12224640  0.84527473  0.20034689     0.35300
C383        C  0.01866643  0.05753271  0.17860302     0.20900
C384        C  0.03058492  0.08471466  0.17748936    -0.39000
C385        C  0.06027834  0.08588222  0.17793378     0.19800
C386        C  0.07692428  0.06180227  0.17933099     0.22500
C387        C  0.06495747  0.03449205  0.18045504    -0.39500
C388        C  0.03511913  0.03331272  0.17996446     0.21300
N389        N  0.99096193  0.05097781  0.17870868    -0.32800
C390        C  0.98951969  0.02235936  0.18013312    -0.10300
C391        C  0.01667355  0.01047833  0.18079381    -0.29200
N392        N  0.10463665  0.06870970  0.17814293    -0.45700
C393        C  0.10551174  0.09735940  0.17583684    -0.05000
C394        C  0.07825143  0.10878969  0.17583774    -0.22400
H395        H  0.01765133  0.10358933  0.17615281     0.19400
H396        H  0.07789653  0.01559689  0.18131220     0.18200
H397        H  0.02213791  0.98826942  0.18213888     0.14500
H398        H  0.07235095  0.13079516  0.17340491     0.14400
H399        H  0.97400681  0.06521799  0.17803881     0.32500
H400        H  0.12182003  0.05475292  0.17794930     0.35300
C401        C  0.23888263  0.88004558  0.30158993     0.20900
C402        C  0.24307635  0.90950116  0.30085260    -0.39000
C403        C  0.24788716  0.92263529  0.32731584     0.19800
C404        C  0.24844762  0.90766124  0.35264391     0.22500
C405        C  0.24472084  0.87812570  0.35331594    -0.39500
C406        C  0.23992603  0.86496508  0.32683764     0.21300
N407        N  0.23252660  0.86283486  0.27956718    -0.32800
C408        C  0.22955308  0.83654121  0.29081688    -0.10300
C409        C  0.23417951  0.83704889  0.32023794    -0.29200
N410        N  0.25166152  0.92532771  0.37502219    -0.45700
C411        C  0.25315415  0.95176455  0.36383758    -0.05000
C412        C  0.25110288  0.95083950  0.33412831    -0.22400
H413        H  0.24193638  0.92143065  0.28120747     0.19400
H414        H  0.24479744  0.86634185  0.37307850     0.18200
H415        H  0.23266726  0.81948078  0.33494996     0.14500
H416        H  0.25089540  0.96856589  0.31952777     0.14400
H417        H  0.22991186  0.86870528  0.25824897     0.32500
H418        H  0.25213623  0.91980468  0.39656341     0.35300
C419        C  0.23336384  0.11196432  0.29114074     0.20900
C420        C  0.22290847  0.10551313  0.31850721    -0.39000
C421        C  0.24009536  0.08774267  0.33526844     0.19800
C422        C  0.26575988  0.07742358  0.32533193     0.22500
C423        C  0.27658821  0.08458362  0.29841555    -0.39500
C424        C  0.25933097  0.10202624  0.28163863     0.21300
N425        N  0.21958654  0.12537365  0.26995771    -0.32800
C426        C  0.23686772  0.12386340  0.24688459    -0.10300
C427        C  0.26185614  0.10947920  0.25331528    -0.29200
N428        N  0.27557852  0.05706290  0.34258892    -0.45700
C429        C  0.25622654  0.05410007  0.36374212    -0.05000
C430        C  0.23391851  0.07326220  0.36023240    -0.22400
H431        H  0.20199909  0.11209937  0.32539534     0.19400
H432        H  0.29597589  0.07535928  0.29023395     0.18200
H433        H  0.27870153  0.10366376  0.23876161     0.14500
H434        H  0.21414759  0.07377215  0.37198461     0.14400
H435        H  0.19908874  0.13376267  0.27069216     0.32500
H436        H  0.29311048  0.04407959  0.33875805     0.35300
C437        C  0.35492082  0.34389561  0.69782452     0.20900
C438        C  0.33362866  0.32934822  0.71315421    -0.39000
C439        C  0.32713011  0.30173406  0.70352202     0.19800
C440        C  0.34088651  0.28969460  0.68042711     0.22500
C441        C  0.36116593  0.30455963  0.66451902    -0.39500
C442        C  0.36763609  0.33193451  0.67410243     0.21300
N443        N  0.36865300  0.36794008  0.70548677    -0.32800
C444        C  0.39029517  0.37094615  0.68655955    -0.10300
C445        C  0.38991177  0.34913975  0.66653560    -0.29200
N446        N  0.33433922  0.26208218  0.67796939    -0.45700
C447        C  0.31600657  0.25628755  0.69938628    -0.05000
C448        C  0.31072182  0.28053408  0.71569912    -0.22400
H449        H  0.32443192  0.33796829  0.73242852     0.19400
H450        H  0.37276733  0.29467017  0.64727130     0.18200
H451        H  0.40595385  0.34464670  0.65064237     0.14500
H452        H  0.29855481  0.28183337  0.73521751     0.14400
H453        H  0.36520368  0.37993168  0.72387831     0.32500
H454        H  0.34291421  0.24766197  0.66343374     0.35300
C455        C  0.24461808  0.08440022  0.54655077     0.20900
C456        C  0.25745153  0.10814255  0.55964510    -0.39000
C457        C  0.24985993  0.11320097  0.58832478     0.19800
C458        C  0.23095428  0.09583533  0.60267816     0.22500
C459        C  0.21743949  0.07289444  0.58938883    -0.39500
C460        C  0.22503407  0.06786020  0.56096848     0.21300
N461        N  0.25167748  0.07217272  0.52142720    -0.32800
C462        C  0.23666473  0.04758269  0.52024211    -0.10300
C463        C  0.21954098  0.04458448  0.54430292    -0.29200
N464        N  0.23020253  0.10230732  0.63055632    -0.45700
C465        C  0.24848014  0.12417830  0.63427146    -0.05000
C466        C  0.26101490  0.13183593  0.60835033    -0.22400
H467        H  0.27367062  0.12049480  0.54901359     0.19400
H468        H  0.20362500  0.05865173  0.60101276     0.18200
H469        H  0.20712223  0.02619294  0.55026485     0.14500
H470        H  0.27780515  0.14718590  0.60509262     0.14400
H471        H  0.26751529  0.07880394  0.50735213     0.32500
H472        H  0.21897331  0.09156613  0.64641803     0.35300
C473        C  0.25676442  0.83033342  0.05686198     0.20900
C474        C  0.26657197  0.82719436  0.08488805    -0.39000
C475        C  0.25335277  0.80604392  0.10100018     0.19800
C476        C  0.23226690  0.78879624  0.08989562     0.22500
C477        C  0.22272968  0.79164302  0.06149193    -0.39500
C478        C  0.23572216  0.81328350  0.04536003     0.21300
N479        N  0.26293251  0.85174243  0.03926760    -0.32800
C480        C  0.24574045  0.84891003  0.01626993    -0.10300
C481        C  0.22859424  0.82480461  0.01900213    -0.29200
N482        N  0.22132279  0.77215701  0.11052285    -0.45700
C483        C  0.23529730  0.77926590  0.13486286    -0.05000
C484        C  0.25541540  0.80029695  0.12971928    -0.22400
H485        H  0.28200215  0.84156543  0.09411454     0.19400
H486        H  0.20525817  0.77918242  0.05318930     0.18200
H487        H  0.21109698  0.81857317  0.00538730     0.14500
H488        H  0.26858765  0.81108987  0.14523926     0.14400
H489        H  0.27646240  0.86876753  0.04377110     0.32500
H490        H  0.20430261  0.75806398  0.10855774     0.35300
C491        C  0.23378276  0.97767172  0.04675550     0.20900
C492        C  0.23192222  0.98849389  0.07449013    -0.39000
C493        C  0.22883365  0.01784992  0.07660776     0.19800
C494        C  0.22789640  0.03518651  0.05287977     0.22500
C495        C  0.23017632  0.02433618  0.02499394    -0.39500
C496        C  0.23300329  0.99476852  0.02284405     0.21300
N497        N  0.23568108  0.95038877  0.03935731    -0.32800
C498        C  0.23602691  0.94973474  0.01048588    -0.10300
C499        C  0.23445734  0.97709035  0.99925851    -0.29200
N500        N  0.22352725  0.06223287  0.06073044    -0.45700
C501        C  0.22156253  0.06197803  0.08961643    -0.05000
C502        C  0.22493108  0.03467296  0.10026632    -0.22400
H503        H  0.23216460  0.97492735  0.09306159     0.19400
H504        H  0.22908518  0.03781067  0.00639332     0.18200
H505        H  0.23403696  0.98315382  0.97703080     0.14500
H506        H  0.22388977  0.02793513  0.12227854     0.14400
H507        H  0.23635935  0.93316638  0.05326126     0.32500
H508        H  0.22145432  0.07966975  0.04726574     0.35300
C509        C  0.24374094  0.97717178  0.82661258     0.20900
C510        C  0.24740268  0.98878817  0.79933102    -0.39000
C511        C  0.24968790  0.01836829  0.79822111     0.19800
C512        C  0.24829979  0.03503716  0.82246311     0.22500
C513        C  0.24461470  0.02340015  0.84975894    -0.39500
C514        C  0.24247532  0.99378344  0.85089758     0.21300
N515        N  0.24149202  0.94967006  0.83331949    -0.32800
C516        C  0.23890676  0.94858643  0.86208738    -0.10300
C517        C  0.23944250  0.97573934  0.87388330    -0.29200
N518        N  0.25196261  0.06245652  0.81585453    -0.45700
C519        C  0.25589037  0.06330504  0.78723736    -0.05000
C520        C  0.25451442  0.03618605  0.77543308    -0.22400
H521        H  0.24875514  0.97571239  0.78041632     0.19400
H522        H  0.24389097  0.03642774  0.86873738     0.18200
H523        H  0.23797201  0.98146753  0.89617281     0.14500
H524        H  0.25747981  0.03024870  0.75334764     0.14400
H525        H  0.24195751  0.93259572  0.81911594     0.32500
H526        H  0.25250020  0.07948601  0.83006671     0.35300
C527        C  0.37969928  0.16317484  0.06597490     0.20900
C528        C  0.35412627  0.14869103  0.06988778    -0.39000
C529        C  0.33527484  0.16084021  0.08923496     0.19800
C530        C  0.34146866  0.18518495  0.10449574     0.22500
C531        C  0.36772326  0.19933081  0.10122988    -0.39500
C532        C  0.38657263  0.18748104  0.08107356     0.21300
N533        N  0.39816267  0.15873039  0.04481547    -0.32800
C534        C  0.41704356  0.18030927  0.04585738    -0.10300
C535        C  0.41094473  0.19853667  0.06857862    -0.29200
N536        N  0.31863675  0.19336275  0.11992470    -0.45700
C537        C  0.29794658  0.17420998  0.11366412    -0.05000
C538        C  0.30768227  0.15371234  0.09477978    -0.22400
H539        H  0.34833533  0.13052475  0.05701328     0.19400
H540        H  0.37225614  0.21913719  0.11195348     0.18200
H541        H  0.42054842  0.21894870  0.07285446     0.14500
H542        H  0.29578272  0.13625402  0.08566679     0.14400
H543        H  0.39641558  0.14337819  0.02883947     0.32500
H544        H  0.31690345  0.21123670  0.13292951     0.35300
C545        C  0.40763118  0.19124233  0.89918987     0.20900
C546        C  0.40805447  0.19108496  0.86918068    -0.39000
C547        C  0.38154406  0.18729339  0.85570389     0.19800
C548        C  0.35660913  0.18393643  0.87097443     0.22500
C549        C  0.35616006  0.18435351  0.90083074    -0.39500
C550        C  0.38253233  0.18810338  0.91421604     0.21300
N551        N  0.42992486  0.19343753  0.91720306    -0.32800
C552        C  0.41875511  0.19156514  0.94381848    -0.10300
C553        C  0.38928959  0.18837970  0.94267043    -0.29200
N554        N  0.33442400  0.17966566  0.85340932    -0.45700
C555        C  0.34512876  0.18031180  0.82661350    -0.05000
C556        C  0.37448399  0.18510984  0.82717999    -0.22400
H557        H  0.42759112  0.19324567  0.85722197     0.19400
H558        H  0.33672519  0.18145290  0.91280841     0.18200
H559        H  0.37474598  0.18596563  0.96037141     0.14500
H560        H  0.38881035  0.18616695  0.80917913     0.14400
H561        H  0.45133063  0.19559837  0.91175364     0.32500
H562        H  0.31331916  0.17609486  0.85933650     0.35300
C563        C  0.60477442  0.22761912  0.07129081     0.20900
C564        C  0.62730562  0.24519648  0.07947652    -0.39000
C565        C  0.64858732  0.23244589  0.09575060     0.19800
C566        C  0.64754018  0.20432433  0.10397399     0.22500
C567        C  0.62441726  0.18675469  0.09634825    -0.39500
C568        C  0.60309753  0.19950528  0.07949802     0.21300
N569        N  0.58480743  0.23372756  0.05187904    -0.32800
C570        C  0.57002493  0.20953232  0.04737317    -0.10300
C571        C  0.58059001  0.18766337  0.06444461    -0.29200
N572        N  0.67203637  0.19689692  0.11707147    -0.45700
C573        C  0.68863299  0.22049894  0.11650899    -0.05000
C574        C  0.67461796  0.24293835  0.10356960    -0.22400
H575        H  0.62919872  0.26675946  0.07189472     0.19400
H576        H  0.62400097  0.16441662  0.10146322     0.18200
H577        H  0.57489882  0.16547010  0.06338264     0.14500
H578        H  0.68300453  0.26385629  0.09921160     0.14400
H579        H  0.58290872  0.25264403  0.04050456     0.32500
H580        H  0.67763893  0.17683488  0.12454542     0.35300
C581        C  0.84218534  0.11027150  0.19783324     0.20900
C582        C  0.85967650  0.09304780  0.21470988    -0.39000
C583        C  0.86581444  0.06607882  0.20366264     0.19800
C584        C  0.85531129  0.05679272  0.17771353     0.22500
C585        C  0.83694085  0.07371258  0.16125274    -0.39500
C586        C  0.83082298  0.10079767  0.17231830     0.21300
N587        N  0.83618305  0.13784842  0.20202831    -0.32800
C588        C  0.82063406  0.14605957  0.17920087    -0.10300
C589        C  0.81665199  0.12349425  0.16028365    -0.29200
N590        N  0.86839491  0.03264962  0.16960711    -0.45700
C591        C  0.88745727  0.02667155  0.19046015    -0.05000
C592        C  0.88610481  0.04688946  0.21214137    -0.22400
H593        H  0.86951965  0.10085775  0.23404334     0.19400
H594        H  0.82960186  0.06709947  0.14041473     0.18200
H595        H  0.80643100  0.12415492  0.13963241     0.14500
H596        H  0.90063187  0.04921767  0.22988770     0.14400
H597        H  0.84309656  0.15060327  0.21888366     0.32500
H598        H  0.86652483  0.02255481  0.14987948     0.35300
C599        C  0.74658228  0.31387216  0.33513358     0.20900
C600        C  0.76283775  0.29299976  0.32115047    -0.39000
C601        C  0.75461686  0.28653851  0.29296424     0.19800
C602        C  0.73190046  0.29988332  0.27994215     0.22500
C603        C  0.71514961  0.31985125  0.29417420    -0.39500
C604        C  0.72341518  0.32638542  0.32207756     0.21300
N605        N  0.75288353  0.32739441  0.35972918    -0.32800
C606        C  0.73377673  0.34877804  0.36194036    -0.10300
C607        C  0.71490031  0.34846655  0.33908020    -0.29200
N608        N  0.73066476  0.29332755  0.25212594    -0.45700
C609        C  0.75251768  0.27545660  0.24715495    -0.05000
C610        C  0.76790668  0.27044617  0.27214816    -0.22400
H611        H  0.78174505  0.28407639  0.33067327     0.19400
H612        H  0.69826179  0.33117588  0.28348902     0.18200
H613        H  0.69918621  0.36436204  0.33391223     0.14500
H614        H  0.78748024  0.25864957  0.27423235     0.14400
H615        H  0.77061951  0.32402961  0.37265343     0.32500
H616        H  0.71663210  0.30161537  0.23706187     0.35300
C617        C  0.12995696  0.19335202  0.01495016     0.20900
C618        C  0.13102277  0.19716099  0.98537521    -0.39000
C619        C  0.10466902  0.19831207  0.97153099     0.19800
C620        C  0.07910740  0.19585923  0.98591387     0.22500
C621        C  0.07803502  0.19242102  0.01561115    -0.39500
C622        C  0.10444864  0.19133087  0.02951279     0.21300
N623        N  0.15205459  0.18978468  0.03270653    -0.32800
C624        C  0.14055055  0.18550775  0.05880063    -0.10300
C625        C  0.11092976  0.18658359  0.05771664    -0.29200
N626        N  0.05709688  0.19665579  0.96757129    -0.45700
C627        C  0.06887234  0.19968291  0.94137841    -0.05000
C628        C  0.09845046  0.20085465  0.94307890    -0.22400
H629        H  0.15091856  0.19845093  0.97388615     0.19400
H630        H  0.05815813  0.19016523  0.02697670     0.18200
H631        H  0.09613285  0.18298632  0.07499324     0.14500
H632        H  0.11345079  0.20285466  0.92571240     0.14400
H633        H  0.17358100  0.18947456  0.02726620     0.32500
H634        H  0.03552635  0.19501450  0.97251505     0.35300
C635        C  0.09913720  0.19900625  0.80346627     0.20900
C636        C  0.11285152  0.18407424  0.78135402    -0.39000
C637        C  0.14142903  0.19162062  0.77618686     0.19800
C638        C  0.15511900  0.21236631  0.79197060     0.22500
C639        C  0.14114866  0.22802969  0.81301231    -0.39500
C640        C  0.11281703  0.22057057  0.81810214     0.21300
N641        N  0.07424854  0.19244331  0.81630074    -0.32800
C642        C  0.07249637  0.20987807  0.83928650    -0.10300
C643        C  0.09586101  0.22798085  0.84059651    -0.29200
N644        N  0.18303928  0.21293514  0.78614190    -0.45700
C645        C  0.18738058  0.19272292  0.76618241    -0.05000
C646        C  0.16190789  0.17908310  0.75913506    -0.22400
H647        H  0.10280268  0.16643697  0.77054575     0.19400
H648        H  0.15222367  0.24340014  0.82609396     0.18200
H649        H  0.10143751  0.24216234  0.85788238     0.14500
H650        H  0.15919295  0.16099514  0.74520109     0.14400
H651        H  0.06087418  0.17543235  0.81141899     0.32500
H652        H  0.19845585  0.22555218  0.79597192     0.35300
C653        C  0.88586964  0.19746584  0.97170161     0.20900
C654        C  0.85853660  0.19950766  0.98339007    -0.39000
C655        C  0.85732825  0.20441707  0.01279374     0.19800
C656        C  0.88154001  0.20673963  0.02937595     0.22500
C657        C  0.90897744  0.20428454  0.01771712    -0.39500
C658        C  0.91019248  0.19973526  0.98813045     0.21300
N659        N  0.89248210  0.19451418  0.94407889    -0.32800
C660        C  0.92124989  0.19506395  0.94263019    -0.10300
C661        C  0.93315190  0.19817012  0.96975048    -0.29200
N662        N  0.87462160  0.21295616  0.05646332    -0.45700
C663        C  0.84583274  0.21486998  0.05702869    -0.05000
C664        C  0.83429540  0.20950482  0.03019686    -0.22400
H665        H  0.83959605  0.19832023  0.97035539     0.19400
H666        H  0.92793842  0.20669364  0.03055632     0.18200
H667        H  0.95544509  0.19984483  0.97517005     0.14500
H668        H  0.81214531  0.21020291  0.02404793     0.14400
H669        H  0.87820254  0.19287678  0.92715824     0.32500
H670        H  0.88865677  0.21654032  0.07331359     0.35300
C671        C  0.75569507  0.53627368  0.32561880     0.20900
C672        C  0.75535736  0.52472578  0.35325318    -0.39000
C673        C  0.75073469  0.49535739  0.35488078     0.19800
C674        C  0.74664878  0.47897669  0.33074889     0.22500
C675        C  0.74694635  0.49050435  0.30318581    -0.39500
C676        C  0.75169509  0.51975770  0.30156137     0.21300
N677        N  0.76081317  0.56329929  0.31827836    -0.32800
C678        C  0.76033371  0.56395887  0.28935413    -0.10300
C679        C  0.75457915  0.53718885  0.27814565    -0.29200
N680        N  0.74302662  0.45169851  0.33778095    -0.45700
C681        C  0.74480997  0.45040461  0.36661749    -0.05000
C682        C  0.74965741  0.47730779  0.37812791    -0.22400
H683        H  0.75885405  0.53758856  0.37204331     0.19400
H684        H  0.74411194  0.47753923  0.28435232     0.18200
H685        H  0.75350434  0.53114611  0.25591334     0.14500
H686        H  0.75224727  0.48285633  0.40036245     0.14400
H687        H  0.76519349  0.58011396  0.33209568     0.32500
H688        H  0.73972635  0.43486775  0.32366307     0.35300
C689        C  0.86809426  0.82950344  0.16741319     0.20900
C690        C  0.86306592  0.80193021  0.15761007    -0.39000
C691        C  0.84286129  0.78632119  0.17275935     0.19800
C692        C  0.82823267  0.79742896  0.19576426     0.22500
C693        C  0.83279231  0.82549295  0.20521719    -0.39500
C694        C  0.85349008  0.84114293  0.19017623     0.21300
N695        N  0.88944536  0.84642826  0.15934129    -0.32800
C696        C  0.88893152  0.86917260  0.17691070    -0.10300
C697        C  0.86645596  0.86696588  0.19632245    -0.29200
N698        N  0.81261277  0.77703190  0.20844637    -0.45700
C699        C  0.81775078  0.75290870  0.19350909    -0.05000
C700        C  0.83642000  0.75793249  0.17111606    -0.22400
H701        H  0.87558437  0.79256890  0.14071475     0.19400
H702        H  0.82247477  0.83381305  0.22404683     0.18200
H703        H  0.86228826  0.88058852  0.21440051     0.14500
H704        H  0.84561422  0.74245142  0.15682519     0.14400
H705        H  0.90492206  0.84171793  0.14411303     0.32500
H706        H  0.80070243  0.77895495  0.22712327     0.35300
C707        C  0.12191116  0.33444156  0.20741651     0.20900
C708        C  0.12774707  0.30784455  0.21945976    -0.39000
C709        C  0.14604817  0.29026193  0.20387024     0.19800
C710        C  0.15801243  0.29867562  0.17831803     0.22500
C711        C  0.15255708  0.32559040  0.16647735    -0.39500
C712        C  0.13396764  0.34318853  0.18201524     0.21300
N713        N  0.10171907  0.35267564  0.21581069    -0.32800
C714        C  0.10056748  0.37335719  0.19582025    -0.10300
C715        C  0.12069652  0.36837224  0.17446211    -0.29200
N716        N  0.17236683  0.27702142  0.16632760    -0.45700
C717        C  0.16932348  0.25464707  0.18424687    -0.05000
C718        C  0.15299526  0.26211520  0.20787235    -0.22400
H719        H  0.11720841  0.30059237  0.23861201     0.19400
H720        H  0.16076084  0.33167354  0.14582765     0.18200
H721        H  0.12279884  0.37955362  0.15445704     0.14500
H722        H  0.14572647  0.24832846  0.22478375     0.14400
H723        H  0.08775861  0.34989289  0.23288666     0.32500
H724        H  0.18227572  0.27696877  0.14641763     0.35300
C725        C  0.95347567  0.36773746  0.18487197     0.20900
C726        C  0.92363886  0.36907853  0.18303076    -0.39000
C727        C  0.90951679  0.34286799  0.18036900     0.19800
C728        C  0.92411403  0.31746478  0.17941148     0.22500
C729        C  0.95375623  0.31615434  0.18127521    -0.39500
C730        C  0.96776080  0.34216601  0.18412919     0.21300
N731        N  0.97201908  0.38942124  0.18728537    -0.32800
C732        C  0.99817501  0.37736245  0.18820258    -0.10300
C733        C  0.99626903  0.34796574  0.18630718    -0.29200
N734        N  0.90619864  0.29559963  0.17591266    -0.45700
C735        C  0.87983569  0.30691044  0.17464102    -0.05000
C736        C  0.88097109  0.33641484  0.17745096    -0.22400
H737        H  0.91230449  0.38898954  0.18347366     0.19400
H738        H  0.96512879  0.29627695  0.18040329     0.18200
H739        H  0.01350970  0.33283544  0.18623030     0.14500
H740        H  0.86341164  0.35114963  0.17666147     0.14400
H741        H  0.96721491  0.41099707  0.18817133     0.32500
H742        H  0.91166497  0.27424625  0.17401165     0.35300
C743        C  0.13129491  0.55914730  0.19010100     0.20900
C744        C  0.15296518  0.57316441  0.20549656    -0.39000
C745        C  0.15837360  0.60153827  0.19759466     0.19800
C746        C  0.14316426  0.61475032  0.17614482     0.22500
C747        C  0.12242883  0.60056089  0.16023633    -0.39500
C748        C  0.11714752  0.57245552  0.16801377     0.21300
N749        N  0.11883244  0.53397514  0.19612326    -0.32800
C750        C  0.09658592  0.53166499  0.17776115    -0.10300
C751        C  0.09531621  0.55506657  0.15977085    -0.29200
N752        N  0.14909429  0.64254084  0.17517707    -0.45700
C753        C  0.16848881  0.64734049  0.19587918    -0.05000
C754        C  0.17513923  0.62225281  0.21023105    -0.22400
H755        H  0.16343810  0.56341103  0.22350518     0.19400
H756        H  0.10984146  0.61127602  0.14425074     0.18200
H757        H  0.07867768  0.56008313  0.14467028     0.14500
H758        H  0.18848779  0.61998371  0.22886713     0.14400
H759        H  0.12363052  0.52052582  0.21309284     0.32500
H760        H  0.13953574  0.65764424  0.16207318     0.35300
C761        C  0.90794831  0.56120846  0.19405753     0.20900
C762        C  0.91990896  0.53389957  0.19270070    -0.39000
C763        C  0.94905542  0.53278282  0.18607051     0.19800
C764        C  0.96472623  0.55705866  0.18083080     0.22500
C765        C  0.95268718  0.58416943  0.18162480    -0.39500
C766        C  0.92383639  0.58530721  0.18870357     0.21300
N767        N  0.88130233  0.56824645  0.20168056    -0.32800
C768        C  0.88040165  0.59701549  0.20141725    -0.10300
C769        C  0.90653619  0.60835361  0.19332914    -0.29200
N770        N  0.99224825  0.55084068  0.17722613    -0.45700
C771        C  0.99452015  0.52241267  0.18041696    -0.05000
C772        C  0.96790004  0.51024815  0.18564755    -0.22400
H773        H  0.90772754  0.51505589  0.19758393     0.19400
H774        H  0.96521093  0.60311536  0.17820466     0.18200
H775        H  0.91228924  0.63049676  0.19168972     0.14500
H776        H  0.96322744  0.48823078  0.19003960     0.14400
H777        H  0.86495059  0.55438205  0.20735538     0.32500
H778        H  0.00872305  0.56533260  0.17388280     0.35300
C779        C  0.25763637  0.85965661  0.55258718     0.20900
C780        C  0.25836381  0.87174389  0.52515641    -0.39000
C781        C  0.25512868  0.90134333  0.52401546     0.19800
C782        C  0.25122231  0.91739453  0.54838814     0.22500
C783        C  0.25030449  0.90535580  0.57566429    -0.39500
C784        C  0.25378050  0.87594810  0.57680731     0.21300
N785        N  0.26170441  0.83233444  0.55965370    -0.32800
C786        C  0.26069580  0.83136082  0.58856857    -0.10300
C787        C  0.25564099  0.85816362  0.59996940    -0.29200
N788        N  0.24896698  0.94491539  0.54191830    -0.45700
C789        C  0.25144782  0.94675401  0.51319333    -0.05000
C790        C  0.25539110  0.91993739  0.50116088    -0.22400
H791        H  0.26175738  0.85912302  0.50619862     0.19400
H792        H  0.24763659  0.91807180  0.59468420     0.18200
H793        H  0.25447717  0.86400832  0.62225025     0.14500
H794        H  0.25804422  0.91476862  0.47884702     0.14400
H795        H  0.26585591  0.81557054  0.54574049     0.32500
H796        H  0.24593108  0.96153733  0.55633889     0.35300
C797        C  0.35845684  0.55424248  0.69341765     0.20900
C798        C  0.33677877  0.56764919  0.67765657    -0.39000
C799        C  0.33102230  0.59606836  0.68504025     0.19800
C800        C  0.34585472  0.60991528  0.70642694     0.22500
C801        C  0.36662195  0.59628844  0.72275960    -0.39500
C802        C  0.37234775  0.56811019  0.71540550     0.21300
N803        N  0.37129762  0.52927957  0.68764365    -0.32800
C804        C  0.39358512  0.52759172  0.70597278    -0.10300
C805        C  0.39452420  0.55123053  0.72377612    -0.29200
N806        N  0.33959777  0.63766780  0.70682088    -0.45700
C807        C  0.32039567  0.64176746  0.68577553    -0.05000
C808        C  0.31420563  0.61626274  0.67183733    -0.22400
H809        H  0.32660866  0.55743231  0.65967480     0.19400
H810        H  0.37898767  0.60749513  0.73864909     0.18200
H811        H  0.41120753  0.55680594  0.73866816     0.14500
H812        H  0.30106939  0.61337679  0.65311907     0.14400
H813        H  0.36678916  0.51562500  0.67069588     0.32500
H814        H  0.34880116  0.65317200  0.71978729     0.35300
C815        C  0.24467829  0.78245477  0.78874638     0.20900
C816        C  0.25225844  0.78657836  0.81758314    -0.39000
C817        C  0.23874805  0.80927044  0.83166693     0.19800
C818        C  0.21893276  0.82603034  0.81792883     0.22500
C819        C  0.21071042  0.82134684  0.78962523    -0.39500
C820        C  0.22457109  0.79925700  0.77550872     0.21300
N821        N  0.25735035  0.76537311  0.76950499    -0.32800
C822        C  0.24547225  0.77183056  0.74393958    -0.10300
C823        C  0.22488300  0.79271864  0.74692534    -0.29200
N824        N  0.21256272  0.84877487  0.83369434    -0.45700
C825        C  0.22837652  0.84702419  0.85773403    -0.05000
C826        C  0.24474029  0.82232207  0.85760034    -0.22400
H827        H  0.26906309  0.77453869  0.82756842     0.19400
H828        H  0.19637592  0.83550972  0.77862206     0.18200
H829        H  0.21330088  0.80325937  0.73008170     0.14500
H830        H  0.26116724  0.81653967  0.87262961     0.14400
H831        H  0.27437218  0.75170435  0.77315532     0.32500
H832        H  0.19983833  0.86576743  0.82740072     0.35300
C833        C  0.60879278  0.21108366  0.85770794     0.20900
C834        C  0.58138463  0.20714261  0.86905931    -0.39000
C835        C  0.57937838  0.20824108  0.89893504     0.19800
C836        C  0.60294340  0.21288762  0.91597465     0.22500
C837        C  0.63023732  0.21673928  0.90467715    -0.39500
C838        C  0.63223682  0.21561161  0.87493897     0.21300
N839        N  0.61627793  0.21207890  0.83006266    -0.32800
C840        C  0.64465583  0.21732515  0.82974080    -0.10300
C841        C  0.65536248  0.21949564  0.85737701    -0.29200
N842        N  0.59569606  0.21296135  0.94357256    -0.45700
C843        C  0.56729680  0.20829116  0.94440217    -0.05000
C844        C  0.55623331  0.20529353  0.91690731    -0.22400
H845        H  0.56298916  0.20373975  0.85562965     0.19400
H846        H  0.64856979  0.22053242  0.91809537     0.18200
H847        H  0.67695842  0.22425770  0.86374239     0.14500
H848        H  0.53438091  0.20128053  0.91092541     0.14400
H849        H  0.60278712  0.21001233  0.81249430     0.32500
H850        H  0.60939511  0.21586378  0.96087766     0.35300
C851        C  0.56584115  0.31289451  0.70445787     0.20900
C852        C  0.53622152  0.31186795  0.70142740    -0.39000
C853        C  0.52261222  0.33807593  0.69851546     0.19800
C854        C  0.53724959  0.36352663  0.69871876     0.22500
C855        C  0.56703278  0.36454616  0.70146743    -0.39500
C856        C  0.58073670  0.33820417  0.70429856     0.21300
N857        N  0.58344937  0.29089518  0.70845954    -0.32800
C858        C  0.60990252  0.30206472  0.71081377    -0.10300
C859        C  0.60909227  0.33157655  0.70822271    -0.29200
N860        N  0.51905869  0.38548331  0.69674484    -0.45700
C861        C  0.49271244  0.37378247  0.69524777    -0.05000
C862        C  0.49419689  0.34428323  0.69612565    -0.22400
H863        H  0.52455248  0.29209023  0.70175091     0.19400
H864        H  0.57862364  0.38436437  0.70183584     0.18200
H865        H  0.62675535  0.34622013  0.70969078     0.14500
H866        H  0.47671182  0.32935213  0.69577114     0.14400
H867        H  0.57773509  0.26953194  0.70985489     0.32500
H868        H  0.52419824  0.40701665  0.69678312     0.35300
C869        C  0.76113655  0.32398832  0.55795015     0.20900
C870        C  0.77156501  0.31839179  0.58536668    -0.39000
C871        C  0.75587217  0.29908624  0.60164250     0.19800
C872        C  0.73170426  0.28587494  0.59131457     0.22500
C873        C  0.72147597  0.29111787  0.56347158    -0.39500
C874        C  0.73712676  0.31084953  0.54714099     0.21300
N875        N  0.76983410  0.34478813  0.54060956    -0.32800
C876        C  0.75140783  0.34545899  0.51842910    -0.10300
C877        C  0.73079262  0.32422126  0.52145710    -0.29200
N878        N  0.71925767  0.27048489  0.61213267    -0.45700
C879        C  0.73557014  0.27422381  0.63578743    -0.05000
C880        C  0.75853292  0.29193013  0.63000087    -0.22400
H881        H  0.78956430  0.32976209  0.59412107     0.19400
H882        H  0.70184449  0.28189649  0.55577774     0.18200
H883        H  0.71187385  0.32133615  0.50865960     0.14500
H884        H  0.77418080  0.29978541  0.64497599     0.14400
H885        H  0.78600785  0.35938757  0.54489411     0.32500
H886        H  0.70011126  0.25933505  0.61076962     0.35300
C887        C  0.83333137  0.18398150  0.79210708     0.20900
C888        C  0.84762176  0.16806143  0.81276904    -0.39000
C889        C  0.87568458  0.17623406  0.81851587     0.19800
C890        C  0.88878776  0.19871809  0.80487627     0.22500
C891        C  0.87475516  0.21404586  0.78326510    -0.39500
C892        C  0.84650025  0.20574297  0.77738328     0.21300
N893        N  0.80547785  0.18275418  0.78583721    -0.32800
C894        C  0.80065991  0.20356609  0.76663358    -0.10300
C895        C  0.82579467  0.21825623  0.76057927    -0.29200
N896        N  0.91355584  0.20535845  0.81797636    -0.45700
C897        C  0.91585854  0.18702211  0.84015269    -0.05000
C898        C  0.89289995  0.16835377  0.84070648    -0.22400
H899        H  0.83695087  0.15182941  0.82505558     0.19400
H900        H  0.88434238  0.23235571  0.77325994     0.18200
H901        H  0.82806073  0.23704727  0.74759840     0.14500
H902        H  0.88781211  0.15323828  0.85727641     0.14400
H903        H  0.79033994  0.16938178  0.79505686     0.32500
H904        H  0.92655223  0.22278433  0.81376197     0.35300
C905        C  0.74929510  0.40927325  0.02468562     0.20900
C906        C  0.75415653  0.37989361  0.02460532    -0.39000
C907        C  0.75605322  0.36694997  0.05153577     0.19800
C908        C  0.75342660  0.38209536  0.07666590     0.22500
C909        C  0.74841875  0.41142076  0.07675970    -0.39500
C910        C  0.74644455  0.42431701  0.04985105     0.21300
N911        N  0.74755761  0.42670191  0.00198244    -0.32800
C912        C  0.74361113  0.45307023  0.01281042    -0.10300
C913        C  0.74270154  0.45230678  0.04258609    -0.29200
N914        N  0.75697952  0.36504974  0.09938830    -0.45700
C915        C  0.76187523  0.33878118  0.08871403    -0.05000
C916        C  0.76134320  0.33916577  0.05892515    -0.22400
H917        H  0.75666402  0.36802890  0.00502284     0.19400
H918        H  0.74660131  0.42340640  0.09635243     0.18200
H919        H  0.74034986  0.47002749  0.05704833     0.14500
H920        H  0.76497543  0.32157119  0.04458859     0.14400
H921        H  0.74949715  0.42109057  0.98053195     0.32500
H922        H  0.75646488  0.37100406  0.12085796     0.35300
C923        C  0.76523091  0.58051706  0.04587230     0.20900
C924        C  0.78405991  0.59014828  0.06692554    -0.39000
C925        C  0.77176791  0.60479246  0.08976574     0.19800
C926        C  0.74290698  0.61013721  0.09138996     0.22500
C927        C  0.72405667  0.60099726  0.06990648    -0.39500
C928        C  0.73632927  0.58575877  0.04718980     0.21300
N929        N  0.77118316  0.56213175  0.02486403    -0.32800
C930        C  0.74603578  0.55529411  0.01262696    -0.10300
C931        C  0.72374881  0.56973408  0.02586781    -0.29200
N932        N  0.73633918  0.62212308  0.11669069    -0.45700
C933        C  0.76120748  0.62383783  0.13125227    -0.05000
C934        C  0.78367150  0.61336941  0.11510831    -0.22400
H935        H  0.80640145  0.58477395  0.06662163     0.19400
H936        H  0.70131612  0.60378046  0.07174271     0.18200
H937        H  0.70123042  0.56638714  0.02258649     0.14500
H938        H  0.80558717  0.61102353  0.12168187     0.14400
H939        H  0.79086175  0.55274998  0.02081362     0.32500
H940        H  0.71612490  0.62738342  0.12415426     0.35300
C941        C  0.74654749  0.58655376  0.83103897     0.20900
C942        C  0.73116192  0.60853844  0.81788144    -0.39000
C943        C  0.73902696  0.61504694  0.78963616     0.19800
C944        C  0.76053013  0.60062975  0.77569601     0.22500
C945        C  0.77652963  0.57956192  0.78911388    -0.39500
C946        C  0.76865694  0.57307246  0.81713016     0.21300
N947        N  0.74034005  0.57313435  0.85571479    -0.32800
C948        C  0.75850897  0.55087839  0.85716146    -0.10300
C949        C  0.77664029  0.55053541  0.83367576    -0.29200
N950        N  0.76106443  0.60728352  0.74790201    -0.45700
C951        C  0.73997131  0.62627794  0.74393820    -0.05000
C952        C  0.72591909  0.63201747  0.76951405    -0.22400
H953        H  0.71304784  0.61834648  0.82805744     0.19400
H954        H  0.79245679  0.56747955  0.77777835     0.18200
H955        H  0.79164310  0.53413051  0.82797868     0.14500
H956        H  0.70697013  0.64463857  0.77237281     0.14400
H957        H  0.72331304  0.57736011  0.86932610     0.32500
H958        H  0.77393899  0.59823810  0.73221767     0.35300
C959        C  0.74959535  0.40469831  0.85313418     0.20900
C960        C  0.74403192  0.37551659  0.85430953    -0.39000
C961        C  0.74360980  0.36135262  0.82797530     0.19800
C962        C  0.74830505  0.37515152  0.80237906     0.22500
C963        C  0.75463303  0.40416749  0.80126623    -0.39500
C964        C  0.75498773  0.41832208  0.82758623     0.21300
N965        N  0.74910003  0.42333497  0.87489389    -0.32800
C966        C  0.75416050  0.44900464  0.86302107    -0.10300
C967        C  0.75815413  0.44663195  0.83361945    -0.29200
N968        N  0.74413683  0.35749007  0.78021960    -0.45700
C969        C  0.73683517  0.33224527  0.79184251    -0.05000
C970        C  0.73662283  0.33376622  0.82155303    -0.22400
H971        H  0.73928354  0.36482706  0.87413582     0.19400
H972        H  0.75783149  0.41516538  0.78129709     0.18200
H973        H  0.76176565  0.46355472  0.81849818     0.14500
H974        H  0.73060349  0.31728444  0.83639343     0.14400
H975        H  0.74483850  0.41897691  0.89627961     0.32500
H976        H  0.74537892  0.36249634  0.75857263     0.35300
C977        C  0.32630339  0.68396877  0.29252904     0.20900
C978        C  0.33987603  0.66846243  0.31399354    -0.39000
C979        C  0.36903488  0.67363446  0.31740695     0.19800
C980        C  0.38380301  0.69294183  0.30085802     0.22500
C981        C  0.37039663  0.70749835  0.27834022    -0.39500
C982        C  0.34107021  0.70221753  0.27481272     0.21300
N983        N  0.29817404  0.68563781  0.28778523    -0.32800
C984        C  0.29481006  0.70476928  0.26657983    -0.10300
C985        C  0.32110418  0.71533209  0.25762696    -0.29200
N986        N  0.40972319  0.69823477  0.31225193    -0.45700
C987        C  0.41117226  0.68226587  0.33627120    -0.05000
C988        C  0.38643324  0.66626841  0.33962744    -0.22400
H989        H  0.32813414  0.65503457  0.32851968     0.19400
H990        H  0.38141950  0.72340025  0.26594640     0.18200
H991        H  0.32487708  0.73195532  0.24222899     0.14500
H992        H  0.38048301  0.65379550  0.35803839     0.14400
H993        H  0.28211994  0.67511821  0.29896252     0.32500
H994        H  0.42414522  0.71376023  0.30573601     0.35300
C995        C  0.38004932  0.70531113  0.52526766     0.20900
C996        C  0.40724501  0.70257050  0.51313867    -0.39000
C997        C  0.40807714  0.70051329  0.48327052     0.19800
C998        C  0.38360759  0.70099287  0.46692346     0.22500
C999        C  0.35649035  0.70375376  0.47899794    -0.39500
C1000       C  0.35568849  0.70594276  0.50876052     0.21300
N1001       N  0.37356053  0.70858555  0.55298526    -0.32800
C1002       C  0.34490343  0.71151169  0.55410175    -0.10300
C1003       C  0.33301463  0.70988263  0.52690551    -0.29200
N1004       N  0.38991083  0.69866677  0.43917327    -0.45700
C1005       C  0.41861346  0.69676656  0.43757325    -0.05000
C1006       C  0.43078908  0.69790554  0.46470781    -0.22400
H1007       H  0.42634203  0.70235609  0.52598597     0.19400
H1008       H  0.33742301  0.70441688  0.46611280     0.18200
H1009       H  0.31086566  0.71207334  0.52112675     0.14500
H1010       H  0.45311404  0.69683645  0.47010552     0.14400
H1011       H  0.38783957  0.70952663  0.57003537     0.32500
H1012       H  0.37542552  0.69842539  0.42225062     0.35300
C1013       C  0.60144631  0.67589806  0.46408612     0.20900
C1014       C  0.62893484  0.67277221  0.47521042    -0.39000
C1015       C  0.63083668  0.67162910  0.50497023     0.19800
C1016       C  0.60712552  0.67331026  0.52231037     0.22500
C1017       C  0.57954949  0.67622929  0.51112999    -0.46700
C1018       C  0.57762795  0.67748286  0.48128229     0.21300
N1019       N  0.59423568  0.67841235  0.43659295    -0.32800
C1020       C  0.56560989  0.68165640  0.43600644    -0.10300
C1021       C  0.55437433  0.68103147  0.46354230    -0.29200
N1022       N  0.61467579  0.67183842  0.54989633    -0.45700
C1023       C  0.64338734  0.66927320  0.55010621    -0.05000
C1024       C  0.65423409  0.66905098  0.52245120    -0.22400
H1025       H  0.64751290  0.67165681  0.46166983     0.19400
H1026       H  0.56101100  0.67767868  0.52467888     0.18200
H1027       H  0.53237750  0.68347035  0.46975220     0.14500
H1028       H  0.67622701  0.66713500  0.51601905     0.14400
H1029       H  0.60813094  0.67826311  0.41920468     0.32500
H1030       H  0.60112186  0.67248391  0.56749630     0.35300
C1031       C  0.61276443  0.71045011  0.31828555     0.20900
C1032       C  0.64115076  0.71920722  0.31619539    -0.39000
C1033       C  0.65712879  0.70642683  0.29463673     0.19800
C1034       C  0.64565672  0.68671753  0.27603811     0.22500
C1035       C  0.61695963  0.67810713  0.27796218    -0.39500
C1036       C  0.60090031  0.69069801  0.29997136     0.21300
N1037       N  0.59498869  0.71628103  0.33973779    -0.32800
C1038       C  0.57150888  0.70010060  0.33569577    -0.10300
C1039       C  0.57414072  0.68404555  0.31073610    -0.29200
N1040       N  0.66606614  0.67626041  0.25880911    -0.45700
C1041       C  0.69059560  0.68919454  0.26693365    -0.05000
C1042       C  0.68581920  0.70804792  0.28922907    -0.22400
H1043       H  0.65061678  0.73359885  0.33148594     0.19400
H1044       H  0.60826482  0.66166354  0.26441958     0.18200
H1045       H  0.56016479  0.66727717  0.30352394     0.14500
H1046       H  0.70149927  0.72032240  0.30079106     0.14400
H1047       H  0.59967976  0.72867025  0.35761966     0.32500
H1048       H  0.66376569  0.66030606  0.24353151     0.35300
C1049       C  0.12617255  0.70687722  0.36622869     0.20900
C1050       C  0.12724838  0.69945613  0.39506427    -0.39000
C1051       C  0.10117828  0.69935338  0.40937874     0.19800
C1052       C  0.07578395  0.70604885  0.39613922     0.22500
C1053       C  0.07462189  0.71299251  0.36702402    -0.39500
C1054       C  0.10084146  0.71310556  0.35261192     0.21300
N1055       N  0.14830189  0.71001107  0.34846187    -0.32800
C1056       C  0.13710601  0.71814608  0.32319873    -0.10300
C1057       C  0.10751856  0.72011084  0.32485084    -0.29200
N1058       N  0.05423706  0.70577213  0.41506704    -0.45700
C1059       C  0.06624292  0.69892765  0.44043100    -0.05000
C1060       C  0.09539013  0.69463337  0.43759223    -0.22400
H1061       H  0.14706811  0.69486326  0.40579159     0.19400
H1062       H  0.05492540  0.71855521  0.35654915     0.18200
H1063       H  0.09299993  0.72671437  0.30826481     0.14500
H1064       H  0.11050669  0.68949275  0.45418156     0.14400
H1065       H  0.16976903  0.70714630  0.35333817     0.32500
H1066       H  0.03292130  0.71048735  0.41112239     0.35300
C1067       C  0.14671962  0.70213859  0.60349791     0.20900
C1068       C  0.11794672  0.71022141  0.60108639    -0.39000
C1069       C  0.10254765  0.69770455  0.57852099     0.19800
C1070       C  0.11508204  0.67840854  0.56024516     0.22500
C1071       C  0.14347218  0.66994712  0.56298710    -0.39500
C1072       C  0.15883717  0.68275193  0.58502943     0.21300
N1073       N  0.16672068  0.71327879  0.62081409    -0.32800
C1074       C  0.19163545  0.70117198  0.61285577    -0.10300
C1075       C  0.18753485  0.68200942  0.59067821    -0.29200
N1076       N  0.09788228  0.67258252  0.53829553    -0.45700
C1077       C  0.07407705  0.68827588  0.54197473    -0.05000
C1078       C  0.07591850  0.70402650  0.56722267    -0.22400
H1079       H  0.10879941  0.72643064  0.61455355     0.19400
H1080       H  0.15345169  0.65594630  0.54771080     0.18200
H1081       H  0.20365406  0.67040998  0.57911055     0.14500
H1082       H  0.06142181  0.72025365  0.57447957     0.14400
H1083       H  0.16393151  0.72932897  0.63588791     0.32500
H1084       H  0.10306074  0.66029455  0.52050874     0.35300
C1085       C  0.84277153  0.69456640  0.60613331     0.20900
C1086       C  0.87107983  0.68530069  0.60261999    -0.39000
C1087       C  0.88666439  0.69842671  0.58057974     0.19800
C1088       C  0.87475227  0.71933266  0.56377464     0.22500
C1089       C  0.84693050  0.72905790  0.56776143    -0.39500
C1090       C  0.83136424  0.71572894  0.58930870     0.21300
N1091       N  0.82235812  0.68288734  0.62257101    -0.32800
C1092       C  0.79788572  0.69654421  0.61580194    -0.10300
C1093       C  0.80274134  0.71717964  0.59522218    -0.29200
N1094       N  0.89163384  0.72537189  0.54164960    -0.45700
C1095       C  0.91460767  0.70828820  0.54382950    -0.05000
C1096       C  0.91259100  0.69134179  0.56820544    -0.22400
H1097       H  0.87959606  0.66774016  0.61467617     0.19400
H1098       H  0.83733123  0.74432011  0.55353556     0.18200
H1099       H  0.78701269  0.72991953  0.58437948     0.14500
H1100       H  0.92634505  0.67397684  0.57409290     0.14400
H1101       H  0.82450285  0.66539858  0.63599548     0.32500
H1102       H  0.88669297  0.73878730  0.52466960     0.35300
C1103       C  0.90991175  0.69536042  0.39686481     0.20900
C1104       C  0.91116234  0.69328273  0.36695298    -0.39000
C1105       C  0.88486702  0.69028885  0.35291167     0.19800
C1106       C  0.85938145  0.68942614  0.36759909     0.22500
C1107       C  0.85810838  0.69183950  0.39733338    -0.39500
C1108       C  0.88427373  0.69482121  0.41127957     0.21300
N1109       N  0.93178594  0.69743621  0.41537524    -0.32800
C1110       C  0.91980861  0.69826305  0.44169096    -0.10300
C1111       C  0.89025210  0.69677383  0.43985920    -0.29200
N1112       N  0.83751359  0.68513913  0.34969580    -0.45700
C1113       C  0.84898278  0.68326128  0.32327779    -0.05000
C1114       C  0.87850466  0.68651360  0.32438192    -0.22400
H1115       H  0.93111731  0.69344764  0.35551024     0.19400
H1116       H  0.83820281  0.69092568  0.40884156     0.18200
H1117       H  0.87512007  0.69667203  0.45722515     0.14500
H1118       H  0.89335270  0.68535547  0.30682023     0.14400
H1119       H  0.95340936  0.69804959  0.41045284     0.32500
H1120       H  0.81610731  0.68306682  0.35520998     0.35300
C1121       C  0.46269030  0.05858813  0.69428431     0.20900
C1122       C  0.45117664  0.08589792  0.69536340    -0.39000
C1123       C  0.42162650  0.08733088  0.69797807     0.19800
C1124       C  0.40470764  0.06336376  0.69927616     0.22500
C1125       C  0.41627643  0.03588372  0.69803016    -0.39500
C1126       C  0.44604256  0.03443170  0.69557199     0.21300
N1127       N  0.49022890  0.05187785  0.69230079    -0.32800
C1128       C  0.49152729  0.02320616  0.69233918    -0.10300
C1129       C  0.46430322  0.01143079  0.69438524    -0.29200
N1130       N  0.37732054  0.07061851  0.70300184    -0.45700
C1131       C  0.37696382  0.09936471  0.70427620    -0.05000
C1132       C  0.40420795  0.11049969  0.70107714    -0.22400
H1133       H  0.46436510  0.10469617  0.69470340     0.19400
H1134       H  0.40314869  0.01708722  0.69938181     0.18200
H1135       H  0.45866991  0.98920607  0.69494397     0.14500
H1136       H  0.41054099  0.13253760  0.70189807     0.14400
H1137       H  0.50721740  0.06611949  0.69105437     0.32500
H1138       H  0.36007764  0.05686027  0.70540602     0.35300
C1139       C  0.64001816  0.11344208  0.67914326     0.20900
C1140       C  0.61792372  0.10016397  0.66420738    -0.39000
C1141       C  0.61310065  0.07160886  0.67074792     0.19800
C1142       C  0.62898131  0.05706237  0.69074999     0.22500
C1143       C  0.65195864  0.07018494  0.70503281    -0.39500
C1144       C  0.65686498  0.09898945  0.69841760     0.21300
N1145       N  0.64617856  0.14124210  0.67922497    -0.32800
C1146       C  0.66738898  0.14482622  0.69837694    -0.10300
C1147       C  0.67490671  0.11889959  0.71067909    -0.29200
N1148       N  0.61680702  0.03167791  0.69655181    -0.45700
C1149       C  0.59295130  0.03040243  0.68023025    -0.05000
C1150       C  0.59039745  0.05474286  0.66362205    -0.22400
H1151       H  0.60410870  0.11180328  0.64999883     0.19400
H1152       H  0.66384033  0.05939884  0.72149335     0.18200
H1153       H  0.68989027  0.11547509  0.72782087     0.14500
H1154       H  0.57246002  0.06070051  0.65049812     0.14400
H1155       H  0.63578132  0.15708274  0.66775263     0.32500
H1156       H  0.62288581  0.01743018  0.71240091     0.35300
C1157       C  0.61623736  0.83633457  0.65947048     0.20900
C1158       C  0.62078991  0.81186154  0.64326251    -0.39000
C1159       C  0.63843759  0.79146971  0.65553388     0.19800
C1160       C  0.65137306  0.79521254  0.68175079     0.22500
C1161       C  0.64708015  0.82008208  0.69795873    -0.39500
C1162       C  0.62879551  0.84048878  0.68583160     0.21300
N1163       N  0.59675317  0.85630367  0.65426739    -0.32800
C1164       C  0.59636303  0.87349941  0.67736343    -0.10300
C1165       C  0.61633322  0.86451339  0.69753095    -0.29200
N1166       N  0.66617061  0.77176676  0.68900523    -0.45700
C1167       C  0.66195851  0.75302428  0.66736350    -0.05000
C1168       C  0.64480016  0.76465029  0.64625603    -0.22400
H1169       H  0.60990388  0.80817886  0.62326687     0.19400
H1170       H  0.65601768  0.82266313  0.71905648     0.18200
H1171       H  0.61875611  0.87220979  0.71912987     0.14500
H1172       H  0.63759553  0.75457608  0.62680536     0.14400
H1173       H  0.58254668  0.85661311  0.63715631     0.32500
H1174       H  0.67764774  0.76841582  0.70774361     0.35300
C1175       C  0.45046900  0.86260408  0.68542611     0.20900
C1176       C  0.42057820  0.86237629  0.68586737    -0.39000
C1177       C  0.40762897  0.83579409  0.68158297     0.19800
C1178       C  0.42326807  0.81138273  0.67716704     0.22500
C1179       C  0.45301913  0.81157509  0.67688960    -0.39500
C1180       C  0.46588243  0.83803113  0.68119684     0.21300
N1181       N  0.46799982  0.88511997  0.68822730    -0.32800
C1182       C  0.49470854  0.87461276  0.68575746    -0.10300
C1183       C  0.49409531  0.84535436  0.68143737    -0.29200
N1184       N  0.40612210  0.78905165  0.67256564    -0.45700
C1185       C  0.37926375  0.79917947  0.67403099    -0.05000
C1186       C  0.37932550  0.82826217  0.67971956    -0.22400
H1187       H  0.40831294  0.88149815  0.68890244     0.19400
H1188       H  0.46528061  0.79255802  0.67318203     0.18200
H1189       H  0.51198936  0.83130637  0.67841428     0.14500
H1190       H  0.36114197  0.84214456  0.68142575     0.14400
H1191       H  0.46218511  0.90622406  0.69134109     0.32500
H1192       H  0.41235250  0.76826730  0.66810967     0.35300
loop_ 
_geom_bond_atom_site_label_1 
_geom_bond_atom_site_label_2 
_geom_bond_distance 
_geom_bond_site_symmetry_2 
_ccdc_geom_bond_type 
C1            N2   1.350       .  A
C1            N6   1.366       .  A
C1         C1164   1.472       .  S
N2            C3   1.348       .  A
C3            N4   1.360       .  A
C3         C1182   1.479       .  S
N4            C5   1.370       .  A
C5            N6   1.371       .  A
C5            C9   1.490       .  S
C7            N8   1.369   1_545  A
C7           N12   1.352       .  A
C7         C1149   1.483       .  S
N8            C9   1.375       .  A
C9           N10   1.367       .  A
N10          C11   1.358   1_565  A
C11          N12   1.349       .  A
C11        C1128   1.477       .  S
C13          N14   1.353       .  A
C13          N18   1.369       .  A
C13        C1095   1.476       .  S
N14          C15   1.348       .  A
C15          N16   1.356       .  A
C15        C1110   1.479       .  S
N16          C17   1.368       .  A
C17          N18   1.372       .  A
C17          C23   1.487   1_655  S
C19          N20   1.351       .  A
C19          N24   1.371       .  A
C19        C1077   1.479       .  S
N20          C21   1.346       .  A
C21          N22   1.353       .  A
C21        C1059   1.473       .  S
N22          C23   1.365       .  A
C23          N24   1.375       .  A
C25          N26   1.370       .  A
C25          N30   1.350       .  A
C25        C1038   1.475       .  S
N26          C27   1.374       .  A
C27          N28   1.368       .  A
C27          C35   1.490       .  S
N28          C29   1.357       .  A
C29          N30   1.346       .  A
C29        C1020   1.476       .  S
C31          N32   1.353       .  A
C31          N36   1.371       .  A
C31         C987   1.480       .  S
N32          C33   1.347       .  A
C33          N34   1.356       .  A
C33        C1005   1.476       .  S
N34          C35   1.367       .  A
C35          N36   1.375       .  A
C37          N38   1.367       .  A
C37          N42   1.352       .  A
C37         C948   1.477       .  S
N38          C39   1.373       .  A
C39          N40   1.366       .  A
C39          C45   1.488       .  S
N40          C41   1.359       .  A
C41          N42   1.349       .  A
C41         C966   1.475       .  S
C43          N44   1.364       .  A
C43          N48   1.353   1_556  A
C43         C930   1.470   1_556  S
N44          C45   1.368       .  A
C45          N46   1.369       .  A
N46          C47   1.362       .  A
C47          N48   1.352   1_556  A
C47         C912   1.483   1_556  S
O49          C65   1.276       .  A
O49         Zn55   2.044       .  S
C50         C969   1.473       .  S
C50          O66   1.278       .  A
C50          O63   1.273       .  A
O51          C64   1.280       .  A
O51         Cd58   2.113       .  S
O52          C70   1.276       .  A
O52         Cd61   2.078       .  S
O53          C67   1.274       .  A
O53         Cd57   2.079       .  S
O54          C65   1.276       .  A
O54         Cd57   2.081       .  S
Zn55         O66   2.047       .  S
Zn55         O68   2.037       .  S
Zn55         O60   1.954       .  S
O56          C67   1.276       .  A
O56         Cd61   2.078       .  S
Cd57         O59   2.077       .  S
Cd57         O60   1.997       .  S
Cd58         O62   2.113       .  S
Cd58         O71   2.117       .  S
Cd58         O60   2.009       .  S
O59          C69   1.277       .  A
O60         Cd61   1.996       .  S
Cd61         O63   2.058       .  S
O62          C69   1.281       .  A
C64         C879   1.480       .  S
C64          O68   1.277       .  A
C65         C858   1.481       .  S
C67         C840   1.476       .  S
C69        C1146   1.478       .  S
C70         C894   1.478       .  S
C70          O71   1.280       .  A
O72          C88   1.274       .  A
O72         Zn78   2.035       .  S
C73        C1002   1.476       .  S
C73          O89   1.275       .  A
C73          O86   1.274       .  A
O74          C87   1.277       .  A
O74         Cd81   2.094       .  S
O75          C93   1.278       .  A
O75         Cd84   2.086       .  S
O76          C90   1.275       .  A
O76         Cd80   2.073       .  S
O77          C88   1.275       .  A
O77         Cd80   2.075       .  S
Zn78         O89   2.026       .  S
Zn78         O91   2.023       .  S
Zn78         O83   1.946       .  S
O79          C90   1.277       .  A
O79         Cd84   2.082       .  S
Cd80         O82   2.074       .  S
Cd80         O83   1.997       .  S
Cd81         O85   2.107       .  S
Cd81         O94   2.104       .  S
Cd81         O83   2.009       .  S
O82          C92   1.276       .  A
O83         Cd84   1.999       .  S
Cd84         O86   2.078       .  S
O85          C92   1.279       .  A
C87        C1074   1.471       .  S
C87          O91   1.276       .  A
C88         C786   1.477       .  S
C90        C1185   1.475       .  S
C92         C822   1.474       .  S
C93         C807   1.476       .  S
C93          O94   1.279       .  A
C95          N96   1.369       .  A
C95         N100   1.354       .  A
C95         C750   1.478       .  S
N96          C97   1.372       .  A
C97          N98   1.367       .  A
C97         C105   1.487       .  S
N98          C99   1.355       .  A
C99         N100   1.348       .  A
C99         C771   1.478   1_455  S
C101        N102   1.354       .  A
C101        N106   1.371       .  A
C101        C714   1.479       .  S
N102        C103   1.351       .  A
C103        N104   1.354       .  A
C103        C732   1.475   1_455  S
N104        C105   1.364       .  A
C105        N106   1.373       .  A
O107        C123   1.273       .  A
O107       Zn113   2.024       .  S
C108        C678   1.474       .  S
C108        O124   1.278       .  A
C108        O121   1.273       .  A
O109        C122   1.278       .  A
O109       Cd116   2.101       .  S
O110        C128   1.275       .  A
O110       Cd119   2.070       .  S
O111        C125   1.276       .  A
O111       Cd115   2.088       .  S
O112        C123   1.277       .  A
O112       Cd115   2.086       .  S
Zn113       O124   2.043       .  S
Zn113       O126   2.020       .  S
Zn113       O118   1.935       .  S
O114        C125   1.275       .  A
O114       Cd119   2.071       .  S
Cd115       O117   2.073       .  S
Cd115       O118   1.993       .  S
Cd116       O120   2.106       .  S
Cd116       O129   2.105       .  S
Cd116       O118   2.010       .  S
O117        C127   1.277       .  A
O118       Cd119   1.984       .  S
Cd119       O121   2.059       .  S
O120        C127   1.280       .  A
C122        C933   1.473       .  S
C122        O126   1.276       .  A
C123        C768   1.477       .  S
C125       C1113   1.477       .  S
C127        C699   1.472       .  S
C128       C1041   1.474       .  S
C128        O129   1.279       .  A
C130        N131   1.354       .  A
C130        N135   1.367       .  A
C130        C897   1.476       .  S
N131        C132   1.349       .  A
C132        N133   1.356       .  A
C132        C660   1.476       .  S
N133        C134   1.365       .  A
C134        N135   1.371       .  A
C134        C140   1.483   1_655  S
C136        N137   1.352       .  A
C136        N141   1.366       .  A
C136        C642   1.474       .  S
N137        C138   1.348       .  A
C138        N139   1.356       .  A
C138        C627   1.474       .  S
N139        C140   1.366       .  A
C140        N141   1.371       .  A
O142        C158   1.275       .  A
O142       Zn148   2.035       .  S
C143        C663   1.475       .  S
C143        O159   1.279       .  A
C143        O156   1.273       .  A
O144        C157   1.279       .  A
O144       Cd151   2.104       .  S
O145        C163   1.278       .  A
O145       Cd154   2.094       .  S
O146        C160   1.275       .  A
O146       Cd150   2.078       .  S
O147        C158   1.277       .  A
O147       Cd150   2.092       .  S
Zn148       O159   2.045       .  S
Zn148       O161   2.018       .  S
Zn148       O153   1.931       .  S
O149        C160   1.277       .  A
O149       Cd154   2.080       .  S
Cd150       O152   2.075       .  S
Cd150       O153   2.001       .  S
Cd151       O155   2.109       .  S
Cd151       O164   2.100       .  S
Cd151       O153   2.008       .  S
O152        C162   1.277       .  A
O153       Cd154   1.990       .  S
Cd154       O156   2.063       .  S
O155        C162   1.281       .  A
C157        C573   1.475       .  S
C157        O161   1.276       .  A
C158        C915   1.483       .  S
C160        C735   1.476       .  S
C162        C609   1.472       .  S
C163        C588   1.479       .  S
C163        O164   1.278       .  A
C165        N166   1.352   1_554  A
C165        N170   1.362       .  A
C165        C534   1.468       .  S
N166        C167   1.350       .  A
C167        N168   1.359       .  A
C167        C552   1.480       .  S
N168        C169   1.368       .  A
C169        N170   1.368   1_556  A
C169        C173   1.480       .  S
C171        N172   1.365       .  A
C171        N176   1.353   1_554  A
C171        C570   1.472       .  S
N172        C173   1.369   1_554  A
C173        N174   1.364       .  A
N174        C175   1.357       .  A
C175        N176   1.352       .  A
C175        C843   1.474       .  S
C177        N178   1.353       .  A
C177        N182   1.367       .  A
C177        C825   1.474       .  S
N178        C179   1.348       .  A
C179        N180   1.356       .  A
C179        C516   1.474       .  S
N180        C181   1.365       .  A
C181        N182   1.371       .  A
C181        C185   1.484       .  S
C183        N184   1.368       .  A
C183        N188   1.349   1_556  A
C183        C480   1.475   1_556  S
N184        C185   1.373       .  A
C185        N186   1.368       .  A
N186        C187   1.356       .  A
C187        N188   1.346   1_556  A
C187        C498   1.473   1_556  S
O189        C205   1.274       .  A
O189       Zn195   2.024       .  S
C190        C519   1.473       .  S
C190        O206   1.275       .  A
C190        O203   1.273       .  A
O191        C204   1.280       .  A
O191       Cd198   2.113       .  S
O192        C210   1.277       .  A
O192       Cd201   2.079       .  S
O193        C207   1.275       .  A
O193       Cd197   2.080       .  S
O194        C205   1.276       .  A
O194       Cd197   2.076       .  S
Zn195       O206   2.028       .  S
Zn195       O208   2.023       .  S
Zn195       O200   1.946       .  S
O196        C207   1.277       .  A
O196       Cd201   2.090       .  S
Cd197       O199   2.078       .  S
Cd197       O200   1.997       .  S
Cd198       O202   2.108       .  S
Cd198       O211   2.103       .  S
Cd198       O200   2.008       .  S
O199        C209   1.277       .  A
O200       Cd201   1.996       .  S
Cd201       O203   2.068       .  S
O202        C209   1.280       .  A
C204        C465   1.477       .  S
C204        O208   1.275       .  A
C205       C1131   1.474       .  S
C207        C555   1.480       .  S
C209        C447   1.475       .  S
C210        C645   1.473       .  S
C210        O211   1.279       .  A
C212        N213   1.353       .  A
C212        N217   1.366       .  A
C212        C429   1.472       .  S
N213        C214   1.351   1_545  A
C214        N215   1.359       .  A
C214        C411   1.480       .  S
N215        C216   1.367   1_565  A
C216        N217   1.370       .  A
C216        C220   1.487       .  S
C218        N219   1.367       .  A
C218        N223   1.352   1_545  A
C218        C462   1.479       .  S
N219        C220   1.373       .  A
C220        N221   1.367   1_545  A
N221        C222   1.358       .  A
C222        N223   1.349       .  A
C222        C789   1.478       .  S
O224        C240   1.272       .  A
O224       Zn230   2.015       .  S
C225        C624   1.470       .  S
C225        O241   1.275       .  A
C225        O238   1.273       .  A
O226        C239   1.278       .  A
O226       Cd233   2.107       .  S
O227        C245   1.276       .  A
O227       Cd236   2.079       .  S
O228        C242   1.274       .  A
O228       Cd232   2.071       .  S
O229        C240   1.276       .  A
O229       Cd232   2.082       .  S
Zn230       O241   2.024       .  S
Zn230       O243   1.990       .  S
Zn230       O235   1.927       .  S
O231        C242   1.276       .  A
O231       Cd236   2.072       .  S
Cd232       O234   2.071       .  S
Cd232       O235   1.994       .  S
Cd233       O237   2.105       .  S
Cd233       O246   2.116       .  S
Cd233       O235   2.010       .  S
O234        C244   1.276       .  A
O235       Cd236   1.983       .  S
Cd236       O238   2.064       .  S
O237        C244   1.280       .  A
C239        C537   1.472       .  S
C239        O243   1.273       .  A
C240        C501   1.474       .  S
C242        C393   1.472       .  S
C244        C426   1.471       .  S
C245        C717   1.479       .  S
C245        O246   1.281       .  A
C247        N248   1.354       .  A
C247        N252   1.367       .  A
C247        C696   1.474       .  S
N248        C249   1.349       .  A
C249        N250   1.357       .  A
C249        C372   1.479       .  S
N250        C251   1.367       .  A
C251        N252   1.370       .  A
C251        C257   1.485       .  S
C253        N254   1.354       .  A
C253        N258   1.369   1_545  A
C253        C591   1.476       .  S
N254        C255   1.350       .  A
C255        N256   1.355   1_545  A
C255        C390   1.473       .  S
N256        C257   1.363       .  A
C257        N258   1.372       .  A
O259        C275   1.277       .  A
O259       Zn265   2.049       .  S
C260        C408   1.481       .  S
C260        O276   1.279       .  A
C260        O273   1.277       .  A
O261        C274   1.278       .  A
O261       Cd268   2.101       .  S
O262        C280   1.277       .  A
O262       Cd271   2.088       .  S
O263        C277   1.274       .  A
O263       Cd267   2.074       .  S
O264        C275   1.276       .  A
O264       Cd267   2.077       .  S
Zn265       O276   2.048       .  S
Zn265       O278   2.037       .  S
Zn265       O270   1.949       .  S
O266        C277   1.276       .  A
O266       Cd271   2.083       .  S
Cd267       O269   2.073       .  S
Cd267       O270   1.995       .  S
Cd268       O272   2.099       .  S
Cd268       O281   2.101       .  S
Cd268       O270   2.006       .  S
O269        C279   1.276       .  A
O270       Cd271   1.997       .  S
Cd271       O273   2.080       .  S
O272        C279   1.278       .  A
C274        C483   1.476       .  S
C274        O278   1.277       .  A
C275        C375   1.481       .  S
C277       C1056   1.474       .  S
C279        C753   1.471       .  S
C280        C984   1.478       .  S
C280        O281   1.278       .  A
C282        N283   1.354       .  A
C282        N287   1.367       .  A
C282        C444   1.477       .  S
N283        C284   1.351       .  A
C284        N285   1.356       .  A
C284        C861   1.479       .  S
N285        C286   1.366       .  A
C286        N287   1.371       .  A
C286        C290   1.485       .  S
C288        N289   1.368       .  A
C288        N293   1.354       .  A
C288        C804   1.477       .  S
N289        C290   1.371       .  A
C290        N291   1.366       .  A
N291        C292   1.356       .  A
C292        N293   1.350       .  A
C292        C354   1.477       .  S
C294        N295   1.353       .  A
C294        N299   1.364       .  A
C294        C606   1.472       .  S
N295        C296   1.350       .  A
C296        N297   1.360       .  A
C296        C681   1.480       .  S
N297        C298   1.369       .  A
C298        N299   1.368       .  A
C298        C302   1.486       .  S
C300        N301   1.368       .  A
C300        N305   1.351       .  A
C300        C876   1.478       .  S
N301        C302   1.374       .  A
C302        N303   1.365       .  A
N303        C304   1.357       .  A
C304        N305   1.348       .  A
C304        C336   1.473       .  S
O306        C322   1.273       .  A
O306       Zn312   2.020       .  S
C307        C357   1.478       .  S
C307        O323   1.278       .  A
C307        O320   1.275       .  A
O308        C321   1.279       .  A
O308       Cd315   2.113       .  S
O309        C327   1.276       .  A
O309       Cd318   2.069       .  S
O310        C324   1.272       .  A
O310       Cd314   2.063       .  S
O311        C322   1.275       .  A
O311       Cd314   2.075       .  S
Zn312       O323   2.036       .  S
Zn312       O325   2.018       .  S
Zn312       O317   1.932       .  S
O313        C324   1.275       .  A
O313       Cd318   2.082       .  S
Cd314       O316   2.069       .  S
Cd314       O317   1.993       .  S
Cd315       O319   2.113       .  S
Cd315       O328   2.097       .  S
Cd315       O317   2.014       .  S
O316        C326   1.276       .  A
O317       Cd318   1.994       .  S
Cd318       O320   2.083       .  S
O319        C326   1.280       .  A
C321       C1167   1.479       .  S
C321        O325   1.276       .  A
C322       C1023   1.474       .  S
C324        C339   1.473       .  S
C326       C1092   1.475       .  S
C327        C951   1.469       .  S
C327        O328   1.279       .  A
C329        N335   1.348       .  A
C329        C334   1.385       .  A
C329        C330   1.404       .  A
C330        C331   1.405       .  A
C330        H341   1.082       .  S
C331        C340   1.378       .  A
C331        C332   1.385       .  A
C332        N338   1.344       .  A
C332        C333   1.401       .  A
C333        C334   1.401       .  A
C333        H342   1.083       .  S
C334        C337   1.372       .  A
N335        C336   1.356       .  A
N335        H345   1.044       .  S
C336        C337   1.395       .  A
C337        H343   1.083       .  S
N338        C339   1.355       .  A
N338        H346   1.045       .  S
C339        C340   1.397       .  A
C340        H344   1.082       .  S
C347        N353   1.340       .  A
C347        C352   1.384       .  A
C347        C348   1.402       .  A
C348        C349   1.400       .  A
C348        H359   1.082       .  S
C349        C358   1.378       .  A
C349        C350   1.384       .  A
C350        N356   1.347       .  A
C350        C351   1.409       .  A
C351        C352   1.408       .  A
C351        H360   1.082       .  S
C352        C355   1.386       .  A
N353        C354   1.356       .  A
N353        H363   1.045       .  S
C354        C355   1.399       .  A
C355        H361   1.082       .  S
N356        C357   1.359       .  A
N356        H364   1.044       .  S
C357        C358   1.394       .  A
C358        H362   1.082       .  S
C365        N371   1.342   1_455  A
C365        C370   1.384       .  A
C365        C366   1.404       .  A
C366        C367   1.402       .  A
C366        H377   1.083       .  S
C367        C376   1.379       .  A
C367        C368   1.384       .  A
C368        N374   1.347       .  A
C368        C369   1.409       .  A
C369        C370   1.407       .  A
C369        H378   1.082       .  S
C370        C373   1.386       .  A
N371        C372   1.357       .  A
N371        H381   1.045       .  S
C372        C373   1.398   1_655  A
C373        H379   1.082       .  S
N374        C375   1.359       .  A
N374        H382   1.044       .  S
C375        C376   1.396       .  A
C376        H380   1.082       .  S
C383        N389   1.340   1_455  A
C383        C388   1.384       .  A
C383        C384   1.401       .  A
C384        C385   1.399       .  A
C384        H395   1.082       .  S
C385        C394   1.375       .  A
C385        C386   1.384       .  A
C386        N392   1.345       .  A
C386        C387   1.407       .  A
C387        C388   1.406       .  A
C387        H396   1.082       .  S
C388        C391   1.383       .  A
N389        C390   1.355       .  A
N389        H399   1.045       .  S
C390        C391   1.398   1_655  A
C391        H397   1.082   1_545  S
N392        C393   1.358       .  A
N392        H400   1.045       .  S
C393        C394   1.393       .  A
C394        H398   1.082       .  S
C401        N407   1.347       .  A
C401        C406   1.384       .  A
C401        C402   1.405       .  A
C402        C403   1.405       .  A
C402        H413   1.082       .  S
C403        C412   1.377       .  A
C403        C404   1.384       .  A
C404        N410   1.348       .  A
C404        C405   1.406       .  A
C405        C406   1.406       .  A
C405        H414   1.082       .  S
C406        C409   1.380       .  A
N407        C408   1.357       .  A
N407        H417   1.046       .  S
C408        C409   1.398       .  A
C409        H415   1.082       .  S
N410        C411   1.357       .  A
N410        H418   1.045       .  S
C411        C412   1.398       .  A
C412        H416   1.083       .  S
C419        N425   1.346       .  A
C419        C424   1.384       .  A
C419        C420   1.409       .  A
C420        C421   1.408       .  A
C420        H431   1.082       .  S
C421        C430   1.388       .  A
C421        C422   1.385       .  A
C422        N428   1.341       .  A
C422        C423   1.404       .  A
C423        C424   1.401       .  A
C423        H432   1.082       .  S
C424        C427   1.381       .  A
N425        C426   1.356       .  A
N425        H435   1.044       .  S
C426        C427   1.393       .  A
C427        H433   1.082       .  S
N428        C429   1.355       .  A
N428        H436   1.045       .  S
C429        C430   1.398       .  A
C430        H434   1.082       .  S
C437        N443   1.353       .  A
C437        C442   1.385       .  A
C437        C438   1.412       .  A
C438        C439   1.412       .  A
C438        H449   1.082       .  S
C439        C448   1.387       .  A
C439        C440   1.385       .  A
C440        N446   1.344       .  A
C440        C441   1.400       .  A
C441        C442   1.401       .  A
C441        H450   1.083       .  S
C442        C445   1.372       .  A
N443        C444   1.359       .  A
N443        H453   1.045       .  S
C444        C445   1.393       .  A
C445        H451   1.083       .  S
N446        C447   1.353       .  A
N446        H454   1.045       .  S
C447        C448   1.399       .  A
C448        H452   1.082       .  S
C455        N461   1.354       .  A
C455        C460   1.384       .  A
C455        C456   1.412       .  A
C456        C457   1.413       .  A
C456        H467   1.082       .  S
C457        C466   1.389       .  A
C457        C458   1.384       .  A
C458        N464   1.344       .  A
C458        C459   1.401       .  A
C459        C460   1.401       .  A
C459        H468   1.083       .  S
C460        C463   1.372       .  A
N461        C462   1.359       .  A
N461        H471   1.044       .  S
C462        C463   1.395       .  A
C463        H469   1.083       .  S
N464        C465   1.354       .  A
N464        H472   1.044       .  S
C465        C466   1.400       .  A
C466        H470   1.082       .  S
C473        N479   1.338       .  A
C473        C478   1.384       .  A
C473        C474   1.402       .  A
C474        C475   1.399       .  A
C474        H485   1.083       .  S
C475        C484   1.379       .  A
C475        C476   1.384       .  A
C476        N482   1.349       .  A
C476        C477   1.413       .  A
C477        C478   1.411       .  A
C477        H486   1.082       .  S
C478        C481   1.393       .  A
N479        C480   1.355       .  A
N479        H489   1.046       .  S
C480        C481   1.400       .  A
C481        H487   1.082       .  S
N482        C483   1.359       .  A
N482        H490   1.044       .  S
C483        C484   1.392       .  A
C484        H488   1.082       .  S
C491        N497   1.337       .  A
C491        C496   1.384       .  A
C491        C492   1.400       .  A
C492        C493   1.398   1_565  A
C492        H503   1.082       .  S
C493        C502   1.377       .  A
C493        C494   1.384       .  A
C494        N500   1.345       .  A
C494        C495   1.409       .  A
C495        C496   1.406   1_545  A
C495        H504   1.082       .  S
C496        C499   1.387   1_554  A
N497        C498   1.355       .  A
N497        H507   1.044       .  S
C498        C499   1.398   1_554  A
C499        H505   1.082       .  S
N500        C501   1.359       .  A
N500        H508   1.043       .  S
C501        C502   1.393       .  A
C502        H506   1.082       .  S
C509        N515   1.341       .  A
C509        C514   1.384       .  A
C509        C510   1.404       .  A
C510        C511   1.402   1_565  A
C510        H521   1.083       .  S
C511        C520   1.380       .  A
C511        C512   1.384       .  A
C512        N518   1.343       .  A
C512        C513   1.405       .  A
C513        C514   1.403   1_545  A
C513        H522   1.082       .  S
C514        C517   1.383       .  A
N515        C516   1.357       .  A
N515        H525   1.046       .  S
C516        C517   1.396       .  A
C517        H523   1.082       .  S
N518        C519   1.356       .  A
N518        H526   1.044       .  S
C519        C520   1.396       .  A
C520        H524   1.082       .  S
C527        N533   1.337       .  A
C527        C532   1.386       .  A
C527        C528   1.395       .  A
C528        C529   1.394       .  A
C528        H539   1.083       .  S
C529        C538   1.366       .  A
C529        C530   1.384       .  A
C530        N536   1.353       .  A
C530        C531   1.412       .  A
C531        C532   1.413       .  A
C531        H540   1.082       .  S
C532        C535   1.390       .  A
N533        C534   1.351       .  A
N533        H543   1.045       .  S
C534        C535   1.400       .  A
C535        H541   1.082       .  S
N536        C537   1.359       .  A
N536        H544   1.044       .  S
C537        C538   1.390       .  A
C538        H542   1.083       .  S
C545        N551   1.351       .  A
C545        C550   1.384       .  A
C545        C546   1.408       .  A
C546        C547   1.410       .  A
C546        H557   1.082       .  S
C547        C556   1.383       .  A
C547        C548   1.384       .  A
C548        N554   1.345       .  A
C548        C549   1.401       .  A
C549        C550   1.402       .  A
C549        H558   1.082       .  S
C550        C553   1.373       .  A
N551        C552   1.358       .  A
N551        H561   1.044       .  S
C552        C553   1.396       .  A
C553        H559   1.083       .  S
N554        C555   1.355       .  A
N554        H562   1.045       .  S
C555        C556   1.400       .  A
C556        H560   1.082       .  S
C563        N569   1.341       .  A
C563        C568   1.385       .  A
C563        C564   1.399       .  A
C564        C565   1.397       .  A
C564        H575   1.083       .  S
C565        C574   1.370       .  A
C565        C566   1.384       .  A
C566        N572   1.354       .  A
C566        C567   1.413       .  A
C567        C568   1.414       .  A
C567        H576   1.082       .  S
C568        C571   1.389       .  A
N569        C570   1.353       .  A
N569        H579   1.045       .  S
C570        C571   1.400       .  A
C571        H577   1.082       .  S
N572        C573   1.360       .  A
N572        H580   1.045       .  S
C573        C574   1.390       .  A
C574        H578   1.083       .  S
C581        N587   1.347       .  A
C581        C586   1.384       .  A
C581        C582   1.404       .  A
C582        C583   1.405       .  A
C582        H593   1.082       .  S
C583        C592   1.377       .  A
C583        C584   1.384       .  A
C584        N590   1.351       .  A
C584        C585   1.410       .  A
C585        C586   1.410       .  A
C585        H594   1.082       .  S
C586        C589   1.385       .  A
N587        C588   1.355       .  A
N587        H597   1.045       .  S
C588        C589   1.398       .  A
C589        H595   1.082       .  S
N590        C591   1.358       .  A
N590        H598   1.044       .  S
C591        C592   1.396       .  A
C592        H596   1.083       .  S
C599        N605   1.351       .  A
C599        C604   1.385       .  A
C599        C600   1.411       .  A
C600        C601   1.411       .  A
C600        H611   1.082       .  S
C601        C610   1.387       .  A
C601        C602   1.385       .  A
C602        N608   1.342       .  A
C602        C603   1.400       .  A
C603        C604   1.400       .  A
C603        H612   1.083       .  S
C604        C607   1.373       .  A
N605        C606   1.358       .  A
N605        H615   1.044       .  S
C606        C607   1.393       .  A
C607        H613   1.083       .  S
N608        C609   1.352       .  A
N608        H616   1.044       .  S
C609        C610   1.399       .  A
C610        H614   1.082       .  S
C617        N623   1.344       .  A
C617        C622   1.385       .  A
C617        C618   1.401   1_554  A
C618        C619   1.401       .  A
C618        H629   1.083       .  S
C619        C628   1.372       .  A
C619        C620   1.385       .  A
C620        N626   1.347       .  A
C620        C621   1.404   1_556  A
C621        C622   1.405       .  A
C621        H630   1.082       .  S
C622        C625   1.377       .  A
N623        C624   1.354       .  A
N623        H633   1.045       .  S
C624        C625   1.396       .  A
C625        H631   1.082       .  S
N626        C627   1.356       .  A
N626        H634   1.044       .  S
C627        C628   1.396       .  A
C628        H632   1.083       .  S
C635        N641   1.353       .  A
C635        C640   1.385       .  A
C635        C636   1.411       .  A
C636        C637   1.412       .  A
C636        H647   1.082       .  S
C637        C646   1.386       .  A
C637        C638   1.385       .  A
C638        N644   1.343       .  A
C638        C639   1.398       .  A
C639        C640   1.399       .  A
C639        H648   1.083       .  S
C640        C643   1.369       .  A
N641        C642   1.359       .  A
N641        H651   1.045       .  S
C642        C643   1.393       .  A
C643        H649   1.083       .  S
N644        C645   1.352       .  A
N644        H652   1.045       .  S
C645        C646   1.399       .  A
C646        H650   1.082       .  S
C653        N659   1.340       .  A
C653        C658   1.384       .  A
C653        C654   1.402       .  A
C654        C655   1.400   1_556  A
C654        H665   1.082       .  S
C655        C664   1.379       .  A
C655        C656   1.384       .  A
C656        N662   1.345       .  A
C656        C657   1.408       .  A
C657        C658   1.406   1_554  A
C657        H666   1.082       .  S
C658        C661   1.385       .  A
N659        C660   1.356       .  A
N659        H669   1.043       .  S
C660        C661   1.398       .  A
C661        H667   1.082       .  S
N662        C663   1.359       .  A
N662        H670   1.044       .  S
C663        C664   1.394       .  A
C664        H668   1.082       .  S
C671        N677   1.344       .  A
C671        C676   1.384       .  A
C671        C672   1.408       .  A
C672        C673   1.405       .  A
C672        H683   1.082       .  S
C673        C682   1.386       .  A
C673        C674   1.384       .  A
C674        N680   1.341       .  A
C674        C675   1.404       .  A
C675        C676   1.401       .  A
C675        H684   1.082       .  S
C676        C679   1.380       .  A
N677        C678   1.358       .  A
N677        H687   1.045       .  S
C678        C679   1.394       .  A
C679        H685   1.082       .  S
N680        C681   1.357       .  A
N680        H688   1.045       .  S
C681        C682   1.398       .  A
C682        H686   1.082       .  S
C689        N695   1.338       .  A
C689        C694   1.384       .  A
C689        C690   1.400       .  A
C690        C691   1.397       .  A
C690        H701   1.083       .  S
C691        C700   1.376       .  A
C691        C692   1.384       .  A
C692        N698   1.350       .  A
C692        C693   1.413       .  A
C693        C694   1.412       .  A
C693        H702   1.082       .  S
C694        C697   1.392       .  A
N695        C696   1.353       .  A
N695        H705   1.045       .  S
C696        C697   1.400       .  A
C697        H703   1.082       .  S
N698        C699   1.359       .  A
N698        H706   1.045       .  S
C699        C700   1.390       .  A
C700        H704   1.083       .  S
C707        N713   1.343       .  A
C707        C712   1.384       .  A
C707        C708   1.406       .  A
C708        C709   1.403       .  A
C708        H719   1.082       .  S
C709        C718   1.383       .  A
C709        C710   1.383       .  A
C710        N716   1.349       .  A
C710        C711   1.412       .  A
C711        C712   1.411       .  A
C711        H720   1.082       .  S
C712        C715   1.391       .  A
N713        C714   1.356       .  A
N713        H723   1.045       .  S
C714        C715   1.400       .  A
C715        H721   1.082       .  S
N716        C717   1.359       .  A
N716        H724   1.044       .  S
C717        C718   1.395       .  A
C718        H722   1.082       .  S
C725        N731   1.349       .  A
C725        C730   1.384       .  A
C725        C726   1.409       .  A
C726        C727   1.409       .  A
C726        H737   1.082       .  S
C727        C736   1.384       .  A
C727        C728   1.385       .  A
C728        N734   1.341       .  A
C728        C729   1.400       .  A
C729        C730   1.399       .  A
C729        H738   1.082       .  S
C730        C733   1.373       .  A
N731        C732   1.358       .  A
N731        H741   1.045       .  S
C732        C733   1.394       .  A
C733        H739   1.083   1_655  S
N734        C735   1.354       .  A
N734        H742   1.045       .  S
C735        C736   1.400       .  A
C736        H740   1.082       .  S
C743        N749   1.355       .  A
C743        C748   1.384       .  A
C743        C744   1.413       .  A
C744        C745   1.413       .  A
C744        H755   1.082       .  S
C745        C754   1.388       .  A
C745        C746   1.385       .  A
C746        N752   1.342       .  A
C746        C747   1.398       .  A
C747        C748   1.399       .  A
C747        H756   1.083       .  S
C748        C751   1.369       .  A
N749        C750   1.360       .  A
N749        H759   1.044       .  S
C750        C751   1.393       .  A
C751        H757   1.083       .  S
N752        C753   1.351       .  A
N752        H760   1.045       .  S
C753        C754   1.400       .  A
C754        H758   1.082       .  S
C761        N767   1.347       .  A
C761        C766   1.384       .  A
C761        C762   1.410       .  A
C762        C763   1.408       .  A
C762        H773   1.082       .  S
C763        C772   1.387       .  A
C763        C764   1.384       .  A
C764        N770   1.340       .  A
C764        C765   1.402       .  A
C765        C766   1.399       .  A
C765        H774   1.082       .  S
C766        C769   1.378       .  A
N767        C768   1.359       .  A
N767        H777   1.044       .  S
C768        C769   1.394       .  A
C769        H775   1.082       .  S
N770        C771   1.355       .  A
N770        H778   1.045   1_655  S
C771        C772   1.399       .  A
C772        H776   1.082       .  S
C779        N785   1.347       .  A
C779        C784   1.384       .  A
C779        C780   1.409       .  A
C780        C781   1.407       .  A
C780        H791   1.082       .  S
C781        C790   1.387       .  A
C781        C782   1.384       .  A
C782        N788   1.339       .  A
C782        C783   1.402       .  A
C783        C784   1.400       .  A
C783        H792   1.083       .  S
C784        C787   1.377       .  A
N785        C786   1.359       .  A
N785        H795   1.044       .  S
C786        C787   1.394       .  A
C787        H793   1.082       .  S
N788        C789   1.356       .  A
N788        H796   1.046       .  S
C789        C790   1.399       .  A
C790        H794   1.082       .  S
C797        N803   1.353       .  A
C797        C802   1.384       .  A
C797        C798   1.412       .  A
C798        C799   1.412       .  A
C798        H809   1.082       .  S
C799        C808   1.387       .  A
C799        C800   1.385       .  A
C800        N806   1.344       .  A
C800        C801   1.400       .  A
C801        C802   1.401       .  A
C801        H810   1.083       .  S
C802        C805   1.373       .  A
N803        C804   1.359       .  A
N803        H813   1.045       .  S
C804        C805   1.394       .  A
C805        H811   1.083       .  S
N806        C807   1.353       .  A
N806        H814   1.044       .  S
C807        C808   1.400       .  A
C808        H812   1.082       .  S
C815        N821   1.350       .  A
C815        C820   1.384       .  A
C815        C816   1.412       .  A
C816        C817   1.411       .  A
C816        H827   1.082       .  S
C817        C826   1.392       .  A
C817        C818   1.384       .  A
C818        N824   1.338       .  A
C818        C819   1.400       .  A
C819        C820   1.398       .  A
C819        H828   1.083       .  S
C820        C823   1.376       .  A
N821        C822   1.359       .  A
N821        H831   1.044       .  S
C822        C823   1.391       .  A
C823        H829   1.083       .  S
N824        C825   1.354       .  A
N824        H832   1.045       .  S
C825        C826   1.399       .  A
C826        H830   1.082       .  S
C833        N839   1.345       .  A
C833        C838   1.384       .  A
C833        C834   1.408       .  A
C834        C835   1.406       .  A
C834        H845   1.082       .  S
C835        C844   1.385       .  A
C835        C836   1.384       .  A
C836        N842   1.339       .  A
C836        C837   1.402       .  A
C837        C838   1.400       .  A
C837        H846   1.082       .  S
C838        C841   1.378       .  A
N839        C840   1.358       .  A
N839        H849   1.045       .  S
C840        C841   1.395       .  A
C841        H847   1.082       .  S
N842        C843   1.355       .  A
N842        H850   1.045       .  S
C843        C844   1.398       .  A
C844        H848   1.082       .  S
C851        N857   1.344       .  A
C851        C856   1.384       .  A
C851        C852   1.402       .  A
C852        C853   1.402       .  A
C852        H863   1.082       .  S
C853        C862   1.375       .  A
C853        C854   1.384       .  A
C854        N860   1.350       .  A
C854        C855   1.409       .  A
C855        C856   1.409       .  A
C855        H864   1.082       .  S
C856        C859   1.384       .  A
N857        C858   1.356       .  A
N857        H867   1.046       .  S
C858        C859   1.400       .  A
C859        H865   1.082       .  S
N860        C861   1.358       .  A
N860        H868   1.045       .  S
C861        C862   1.396       .  A
C862        H866   1.083       .  S
C869        N875   1.340       .  A
C869        C874   1.384       .  A
C869        C870   1.403       .  A
C870        C871   1.400       .  A
C870        H881   1.082       .  S
C871        C880   1.379       .  A
C871        C872   1.383       .  A
C872        N878   1.351       .  A
C872        C873   1.415       .  A
C873        C874   1.413       .  A
C873        H882   1.082       .  S
C874        C877   1.394       .  A
N875        C876   1.355       .  A
N875        H885   1.045       .  S
C876        C877   1.401       .  A
C877        H883   1.082       .  S
N878        C879   1.361       .  A
N878        H886   1.045       .  S
C879        C880   1.392       .  A
C880        H884   1.082       .  S
C887        N893   1.345       .  A
C887        C892   1.385       .  A
C887        C888   1.401       .  A
C888        C889   1.401       .  A
C888        H899   1.083       .  S
C889        C898   1.372       .  A
C889        C890   1.384       .  A
C890        N896   1.354       .  A
C890        C891   1.412       .  A
C891        C892   1.413       .  A
C891        H900   1.082       .  S
C892        C895   1.387       .  A
N893        C894   1.354       .  A
N893        H903   1.045       .  S
C894        C895   1.400       .  A
C895        H901   1.082       .  S
N896        C897   1.359       .  A
N896        H904   1.043       .  S
C897        C898   1.393       .  A
C898        H902   1.083       .  S
C905        N911   1.350       .  A
C905        C910   1.384       .  A
C905        C906   1.407       .  A
C906        C907   1.408       .  A
C906        H917   1.082       .  S
C907        C916   1.381       .  A
C907        C908   1.384       .  A
C908        N914   1.348       .  A
C908        C909   1.405       .  A
C909        C910   1.406       .  A
C909        H918   1.082       .  S
C910        C913   1.377       .  A
N911        C912   1.357       .  A
N911        H921   1.045   1_554  S
C912        C913   1.399       .  A
C913        H919   1.083       .  S
N914        C915   1.357       .  A
N914        H922   1.046       .  S
C915        C916   1.398       .  A
C916        H920   1.082       .  S
C923        N929   1.343       .  A
C923        C928   1.385       .  A
C923        C924   1.402       .  A
C924        C925   1.401       .  A
C924        H935   1.083       .  S
C925        C934   1.375       .  A
C925        C926   1.385       .  A
C926        N932   1.351       .  A
C926        C927   1.409       .  A
C927        C928   1.410       .  A
C927        H936   1.082       .  S
C928        C931   1.385       .  A
N929        C930   1.354       .  A
N929        H939   1.045       .  S
C930        C931   1.398       .  A
C931        H937   1.082       .  S
N932        C933   1.357       .  A
N932        H940   1.045       .  S
C933        C934   1.392       .  A
C934        H938   1.083       .  S
C941        N947   1.353       .  A
C941        C946   1.385       .  A
C941        C942   1.410       .  A
C942        C943   1.411       .  A
C942        H953   1.082       .  S
C943        C952   1.385       .  A
C943        C944   1.385       .  A
C944        N950   1.342       .  A
C944        C945   1.399       .  A
C945        C946   1.400       .  A
C945        H954   1.083       .  S
C946        C949   1.371       .  A
N947        C948   1.358       .  A
N947        H957   1.045       .  S
C948        C949   1.394       .  A
C949        H955   1.083       .  S
N950        C951   1.353       .  A
N950        H958   1.045       .  S
C951        C952   1.397       .  A
C952        H956   1.082       .  S
C959        N965   1.347       .  A
C959        C964   1.385       .  A
C959        C960   1.403       .  A
C960        C961   1.404       .  A
C960        H971   1.082       .  S
C961        C970   1.376       .  A
C961        C962   1.385       .  A
C962        N968   1.346       .  A
C962        C963   1.403       .  A
C963        C964   1.404       .  A
C963        H972   1.082       .  S
C964        C967   1.374       .  A
N965        C966   1.355       .  A
N965        H975   1.044       .  S
C966        C967   1.397       .  A
C967        H973   1.083       .  S
N968        C969   1.355       .  A
N968        H976   1.045       .  S
C969        C970   1.396       .  A
C970        H974   1.082       .  S
C977        N983   1.345       .  A
C977        C982   1.384       .  A
C977        C978   1.401       .  A
C978        C979   1.403       .  A
C978        H989   1.083       .  S
C979        C988   1.371       .  A
C979        C980   1.385       .  A
C980        N986   1.355       .  A
C980        C981   1.411       .  A
C981        C982   1.412       .  A
C981        H990   1.082       .  S
C982        C985   1.386       .  A
N983        C984   1.355       .  A
N983        H993   1.045       .  S
C984        C985   1.398       .  A
C985        H991   1.082       .  S
N986        C987   1.359       .  A
N986        H994   1.044       .  S
C987        C988   1.396       .  A
C988        H992   1.083       .  S
C995       N1001   1.345       .  A
C995       C1000   1.384       .  A
C995        C996   1.407       .  A
C996        C997   1.405       .  A
C996       H1007   1.082       .  S
C997       C1006   1.385       .  A
C997        C998   1.384       .  A
C998       N1004   1.340       .  A
C998        C999   1.403       .  A
C999       C1000   1.401       .  A
C999       H1008   1.083       .  S
C1000      C1003   1.378       .  A
N1001      C1002   1.357       .  A
N1001      H1011   1.046       .  S
C1002      C1003   1.395       .  A
C1003      H1009   1.082       .  S
N1004      C1005   1.356       .  A
N1004      H1012   1.047       .  S
C1005      C1006   1.397       .  A
C1006      H1010   1.082       .  S
C1013      N1019   1.339       .  A
C1013      C1018   1.384       .  A
C1013      C1014   1.403       .  A
C1014      C1015   1.401       .  A
C1014      H1025   1.083       .  S
C1015      C1024   1.379       .  A
C1015      C1016   1.384       .  A
C1016      N1022   1.344       .  A
C1016      C1017   1.407       .  A
C1017      C1018   1.405       .  A
C1017      H1026   1.082       .  S
C1018      C1021   1.386       .  A
N1019      C1020   1.357       .  A
N1019      H1029   1.046       .  S
C1020      C1021   1.397       .  A
C1021      H1027   1.082       .  S
N1022      C1023   1.357       .  A
N1022      H1030   1.044       .  S
C1023      C1024   1.395       .  A
C1024      H1028   1.082       .  S
C1031      N1037   1.338       .  A
C1031      C1036   1.384       .  A
C1031      C1032   1.401       .  A
C1032      C1033   1.398       .  A
C1032      H1043   1.083       .  S
C1033      C1042   1.376       .  A
C1033      C1034   1.384       .  A
C1034      N1040   1.350       .  A
C1034      C1035   1.413       .  A
C1035      C1036   1.412       .  A
C1035      H1044   1.082       .  S
C1036      C1039   1.393       .  A
N1037      C1038   1.355       .  A
N1037      H1047   1.045       .  S
C1038      C1039   1.400       .  A
C1039      H1045   1.082       .  S
N1040      C1041   1.359       .  A
N1040      H1048   1.045       .  S
C1041      C1042   1.392       .  A
C1042      H1046   1.083       .  S
C1049      N1055   1.343       .  A
C1049      C1054   1.385       .  A
C1049      C1050   1.399       .  A
C1050      C1051   1.399       .  A
C1050      H1061   1.082       .  S
C1051      C1060   1.370       .  A
C1051      C1052   1.384       .  A
C1052      N1058   1.349       .  A
C1052      C1053   1.407       .  A
C1053      C1054   1.408       .  A
C1053      H1062   1.082       .  S
C1054      C1057   1.381       .  A
N1055      C1056   1.354       .  A
N1055      H1065   1.045       .  S
C1056      C1057   1.398       .  A
C1057      H1063   1.082       .  S
N1058      C1059   1.357       .  A
N1058      H1066   1.045       .  S
C1059      C1060   1.394       .  A
C1060      H1064   1.083       .  S
C1067      N1073   1.349       .  A
C1067      C1072   1.384       .  A
C1067      C1068   1.413       .  A
C1068      C1069   1.411       .  A
C1068      H1079   1.082       .  S
C1069      C1078   1.394       .  A
C1069      C1070   1.384       .  A
C1070      N1076   1.338       .  A
C1070      C1071   1.402       .  A
C1071      C1072   1.398       .  A
C1071      H1080   1.083       .  S
C1072      C1075   1.377       .  A
N1073      C1074   1.358       .  A
N1073      H1083   1.045       .  S
C1074      C1075   1.391       .  A
C1075      H1081   1.083       .  S
N1076      C1077   1.356       .  A
N1076      H1084   1.045       .  S
C1077      C1078   1.401       .  A
C1078      H1082   1.082       .  S
C1085      N1091   1.350       .  A
C1085      C1090   1.384       .  A
C1085      C1086   1.413       .  A
C1086      C1087   1.412       .  A
C1086      H1097   1.082       .  S
C1087      C1096   1.393       .  A
C1087      C1088   1.384       .  A
C1088      N1094   1.338       .  A
C1088      C1089   1.401       .  A
C1089      C1090   1.399       .  A
C1089      H1098   1.083       .  S
C1090      C1093   1.378       .  A
N1091      C1092   1.359       .  A
N1091      H1101   1.045       .  S
C1092      C1093   1.392       .  A
C1093      H1099   1.082       .  S
N1094      C1095   1.355       .  A
N1094      H1102   1.045       .  S
C1095      C1096   1.400       .  A
C1096      H1100   1.082       .  S
C1103      N1109   1.350       .  A
C1103      C1108   1.384       .  A
C1103      C1104   1.408       .  A
C1104      C1105   1.409       .  A
C1104      H1115   1.082       .  S
C1105      C1114   1.383       .  A
C1105      C1106   1.384       .  A
C1106      N1112   1.343       .  A
C1106      C1107   1.401       .  A
C1107      C1108   1.401       .  A
C1107      H1116   1.083       .  S
C1108      C1111   1.373       .  A
N1109      C1110   1.358       .  A
N1109      H1119   1.044       .  S
C1110      C1111   1.396       .  A
C1111      H1117   1.083       .  S
N1112      C1113   1.355       .  A
N1112      H1120   1.045       .  S
C1113      C1114   1.399       .  A
C1114      H1118   1.082       .  S
C1121      N1127   1.338       .  A
C1121      C1126   1.384       .  A
C1121      C1122   1.401       .  A
C1122      C1123   1.398       .  A
C1122      H1133   1.083       .  S
C1123      C1132   1.376       .  A
C1123      C1124   1.384       .  A
C1124      N1130   1.346       .  A
C1124      C1125   1.410       .  A
C1125      C1126   1.408       .  A
C1125      H1134   1.082       .  S
C1126      C1129   1.388       .  A
N1127      C1128   1.355       .  A
N1127      H1137   1.045       .  S
C1128      C1129   1.399       .  A
C1129      H1135   1.082   1_545  S
N1130      C1131   1.359       .  A
N1130      H1138   1.045       .  S
C1131      C1132   1.393       .  A
C1132      H1136   1.082       .  S
C1139      N1145   1.344       .  A
C1139      C1144   1.384       .  A
C1139      C1140   1.400       .  A
C1140      C1141   1.401       .  A
C1140      H1151   1.083       .  S
C1141      C1150   1.372       .  A
C1141      C1142   1.384       .  A
C1142      N1148   1.355       .  A
C1142      C1143   1.414       .  A
C1143      C1144   1.414       .  A
C1143      H1152   1.082       .  S
C1144      C1147   1.389       .  A
N1145      C1146   1.353       .  A
N1145      H1155   1.045       .  S
C1146      C1147   1.401       .  A
C1147      H1153   1.082       .  S
N1148      C1149   1.360       .  A
N1148      H1156   1.044       .  S
C1149      C1150   1.395       .  A
C1150      H1154   1.083       .  S
C1157      N1163   1.340       .  A
C1157      C1162   1.384       .  A
C1157      C1158   1.400       .  A
C1158      C1159   1.398       .  A
C1158      H1169   1.083       .  S
C1159      C1168   1.372       .  A
C1159      C1160   1.383       .  A
C1160      N1166   1.353       .  A
C1160      C1161   1.413       .  A
C1161      C1162   1.414       .  A
C1161      H1170   1.082       .  S
C1162      C1165   1.391       .  A
N1163      C1164   1.353       .  A
N1163      H1173   1.045       .  S
C1164      C1165   1.401       .  A
C1165      H1171   1.082       .  S
N1166      C1167   1.360       .  A
N1166      H1174   1.044       .  S
C1167      C1168   1.392       .  A
C1168      H1172   1.083       .  S
C1175      N1181   1.351       .  A
C1175      C1180   1.384       .  A
C1175      C1176   1.407       .  A
C1176      C1177   1.408       .  A
C1176      H1187   1.082       .  S
C1177      C1186   1.381       .  A
C1177      C1178   1.385       .  A
C1178      N1184   1.344       .  A
C1178      C1179   1.401       .  A
C1179      C1180   1.401       .  A
C1179      H1188   1.083       .  S
C1180      C1183   1.372       .  A
N1181      C1182   1.358       .  A
N1181      H1191   1.044       .  S
C1182      C1183   1.396       .  A
C1183      H1189   1.083       .  S
N1184      C1185   1.355       .  A
N1184      H1192   1.046       .  S
C1185      C1186   1.399       .  A
C1186      H1190   1.082       .  S
