geometry optimzed in LAMMPS
_audit_creation_date              2020-11-30 
_audit_creation_method            'lammps2cif' 
_symmetry_space_group_name_H-M    'P1' 
_symmetry_Int_Tables_number       1 
_symmetry_cell_setting            triclinic 
loop_ 
_symmetry_equiv_pos_as_xyz 
  x,y,z 
_cell_length_a                    50.54131832 
_cell_length_b                    50.79492220306204 
_cell_length_c                    50.35775014581475 
_cell_angle_alpha                 89.95268381135237 
_cell_angle_beta                  90.02543700466737 
_cell_angle_gamma                 89.81001178981874 
loop_ 
_atom_site_label 
_atom_site_type_symbol 
_atom_site_fract_x 
_atom_site_fract_y 
_atom_site_fract_z 
_atom_site_charge 
N1          N  0.76953360  0.48703067  0.74816600    -0.35700
N2          N  0.81109602  0.48861927  0.70767683    -0.56200
N3          N  0.85116839  0.48443893  0.74800886    -0.35700
N4          N  0.80933586  0.48419322  0.78880868    -0.56200
C5          C  0.75546016  0.49506072  0.72682975     0.27900
C6          C  0.75447257  0.49168907  0.76987881     0.27900
C7          C  0.86650578  0.49062965  0.72680662     0.27900
C8          C  0.86560467  0.48883357  0.77017633     0.27900
C9          C  0.78952493  0.48686956  0.69196194     0.36500
C10         C  0.83231631  0.48571008  0.69161669     0.36500
C11         C  0.78775777  0.48032381  0.80425306     0.36500
C12         C  0.83067683  0.47939514  0.80423454     0.36500
C13         C  0.73099720  0.50451108  0.73501298    -0.21000
C14         C  0.73034868  0.50231282  0.76219868    -0.21000
C15         C  0.89121927  0.49849102  0.73562503    -0.21000
C16         C  0.89065471  0.49737996  0.76298028    -0.21000
C17         C  0.79700510  0.48262438  0.66584253    -0.22000
C18         C  0.82407357  0.48234730  0.66554059    -0.22000
C19         C  0.79537102  0.47313208  0.82964279    -0.22000
C20         C  0.82253029  0.47257908  0.82967503    -0.22000
C21         C  0.76348266  0.49279578  0.70006940    -0.17400
C22         C  0.76139702  0.48532187  0.79629006    -0.17400
C23         C  0.85731355  0.48376339  0.79659696    -0.17400
C24         C  0.85898464  0.48840538  0.69975918    -0.17400
H25         H  0.71514457  0.51202626  0.72265867     0.15500
H26         H  0.71391884  0.50780131  0.77483647     0.15500
H27         H  0.90796824  0.50432332  0.72363113     0.15500
H28         H  0.90695737  0.50210617  0.77605529     0.15500
H29         H  0.78430680  0.48125158  0.64858774     0.13800
H30         H  0.83620092  0.48045471  0.64794915     0.13800
H31         H  0.78270352  0.46929894  0.84652590     0.13800
H32         H  0.83482225  0.46829279  0.84673693     0.13800
H33         H  0.78707910  0.47634599  0.74761463     0.27100
H34         H  0.83290975  0.47514807  0.74744871     0.27100
N35         N  0.51164781  0.75413471  0.76672107    -0.35700
N36         N  0.51388289  0.79271952  0.80876958    -0.56200
N37         N  0.51368006  0.75078043  0.84859727    -0.35700
N38         N  0.51386580  0.71224148  0.80604866    -0.56200
C39         C  0.51469154  0.77636692  0.75228440     0.27900
C40         C  0.51834904  0.73361001  0.75096455     0.27900
C41         C  0.52167150  0.77132704  0.86372018     0.27900
C42         C  0.51870359  0.72840274  0.86236967     0.27900
C43         C  0.50741947  0.80892455  0.78841143     0.36500
C44         C  0.51170145  0.80712962  0.83120982     0.36500
C45         C  0.51088538  0.69770807  0.78378882     0.36500
C46         C  0.50857828  0.69609287  0.82667791     0.36500
C47         C  0.52286185  0.76989438  0.72681271    -0.21000
C48         C  0.52543077  0.74291630  0.72606140    -0.21000
C49         C  0.53153410  0.76186695  0.88761672    -0.21000
C50         C  0.52947912  0.73476801  0.88683534    -0.21000
C51         C  0.50116657  0.83374509  0.79790982    -0.22000
C52         C  0.50385197  0.83262248  0.82500494    -0.22000
C53         C  0.50384004  0.67217188  0.79024534    -0.22000
C54         C  0.50213918  0.67118825  0.81741383    -0.22000
C55         C  0.50908007  0.80217984  0.76123245    -0.17400
C56         C  0.51632849  0.70666731  0.75782988    -0.17400
C57         C  0.51274809  0.70254676  0.85367951    -0.17400
C58         C  0.51905496  0.79835003  0.85693178    -0.17400
H59         H  0.52657171  0.78317738  0.71042901     0.15500
H60         H  0.53131704  0.73143401  0.70894110     0.15500
H61         H  0.53920477  0.77330223  0.90400957     0.15500
H62         H  0.53533999  0.72129138  0.90243992     0.15500
H63         H  0.49570615  0.85098189  0.78647983     0.13800
H64         H  0.50071503  0.84886179  0.83855688     0.13800
H65         H  0.50057425  0.65588551  0.77680200     0.13800
H66         H  0.49755893  0.65385835  0.82903594     0.13800
H67         H  0.50263001  0.75297553  0.78519260     0.27100
H68         H  0.50296038  0.75199346  0.83102899     0.27100
N69         N  0.74932937  0.76855075  0.48884778    -0.35700
N70         N  0.70927561  0.80892812  0.49139486    -0.56200
N71         N  0.75056239  0.84935782  0.49602491    -0.35700
N72         N  0.79052589  0.80849326  0.49108844    -0.56200
C73         C  0.72764102  0.75409446  0.48322918     0.27900
C74         C  0.77059685  0.75389751  0.48207891     0.27900
C75         C  0.72903905  0.86484534  0.49222265     0.27900
C76         C  0.77234853  0.86444474  0.49242725     0.27900
C77         C  0.69356911  0.78758376  0.49430313     0.36500
C78         C  0.69415262  0.83014047  0.49704093     0.36500
C79         C  0.80591075  0.78671934  0.49188168     0.36500
C80         C  0.80656236  0.82903654  0.49637034     0.36500
C81         C  0.73520002  0.72982124  0.47317732    -0.21000
C82         C  0.76231655  0.72967860  0.47244798    -0.21000
C83         C  0.73725160  0.89036735  0.48699800    -0.21000
C84         C  0.76457403  0.89009058  0.48703119    -0.21000
C85         C  0.66833070  0.79520296  0.50170272    -0.22000
C86         C  0.66859201  0.82214889  0.50318636    -0.22000
C87         C  0.83186482  0.79340369  0.49746122    -0.22000
C88         C  0.83228162  0.82018992  0.50041798    -0.22000
C89         C  0.70126843  0.76145444  0.48863539    -0.17400
C90         C  0.79728639  0.76102197  0.48596272    -0.17400
C91         C  0.79899385  0.85585191  0.49505749    -0.17400
C92         C  0.70226576  0.85671920  0.49442622    -0.17400
H93         H  0.72249746  0.71374375  0.46725509     0.15500
H94         H  0.77449917  0.71336293  0.46593119     0.15500
H95         H  0.72484833  0.90744611  0.48357381     0.15500
H96         H  0.77726056  0.90688514  0.48364230     0.15500
H97         H  0.65133911  0.78270296  0.50499519     0.13800
H98         H  0.65169972  0.83441608  0.50791120     0.13800
H99         H  0.84880346  0.78038478  0.49890764     0.13800
H100        H  0.84969810  0.83184898  0.50451207     0.13800
H101        H  0.74971530  0.78588570  0.49969715     0.27100
H102        H  0.75031371  0.83020082  0.50312008     0.27100
O103        O  0.60687048  0.47314002  0.94699629    -0.77600
C104        C  0.56008117  0.48232278  0.02405854     0.83500
O105        O  0.55612471  0.39510316  0.97790885    -0.78700
O106        O  0.48279469  0.46214193  0.98281797    -0.80200
O107        O  0.52727334  0.50585405  0.91734076    -0.80000
O108        O  0.58411007  0.47561014  0.90955868    -0.78600
Zn109      Zn  0.57930322  0.45782086  0.97232149     1.55700
O110        O  0.51588396  0.51617996  0.95887283    -0.80000
Cd111      Cd  0.54535746  0.46922321  0.92007974     1.59700
Cd112      Cd  0.53043831  0.42036626  0.95773483     1.59600
O113        O  0.53216600  0.44075126  0.89316353    -0.80000
O114        O  0.54410861  0.45688467  0.95734661    -1.90500
Cd115      Cd  0.51983747  0.47996543  0.97842106     1.59900
O116        O  0.52801340  0.40599578  0.91939538    -0.79900
O117        O  0.53613761  0.48469100  0.01623226    -0.78600
C118        C  0.58052520  0.39875809  0.98334320     0.83900
C119        C  0.60597778  0.47727010  0.92202672     0.83600
O120        O  0.57842020  0.47478626  0.00841727    -0.77500
C121        C  0.51870897  0.52239899  0.93439349     0.84400
O122        O  0.59126719  0.42112181  0.98025615    -0.77600
C123        C  0.52835584  0.41605046  0.89626163     0.84500
C124        C  0.47606401  0.43798333  0.98081929     0.84900
O125        O  0.49234634  0.42046077  0.97282081    -0.80100
O126        O  0.56070242  0.60641497  0.52278352    -0.77600
C127        C  0.48245378  0.56665947  0.51860159     0.83500
O128        O  0.53773868  0.55677313  0.60521159    -0.78700
O129        O  0.51905204  0.48757817  0.53687219    -0.80200
O130        O  0.58525771  0.52445324  0.48967716    -0.80000
O131        O  0.59663539  0.58240889  0.51523948    -0.78600
Zn132      Zn  0.53646200  0.58112924  0.54242982     1.55700
O133        O  0.54295289  0.51612907  0.48161843    -0.80000
Cd134      Cd  0.58547652  0.54473214  0.52492182     1.59700
Cd135      Cd  0.55145487  0.53034640  0.57700429     1.59600
O136        O  0.61398713  0.53023825  0.55066404    -0.80000
O137        O  0.54950862  0.54540768  0.54068380    -1.90500
Cd138      Cd  0.52553175  0.52355711  0.51837619     1.59900
O139        O  0.59025031  0.52410783  0.58736693    -0.79900
O140        O  0.48949072  0.54306420  0.51348620    -0.78600
C141        C  0.53434937  0.58156368  0.60317345     0.83900
C142        C  0.58446309  0.60432284  0.51438616     0.83600
O143        O  0.49889546  0.58292216  0.52860175    -0.77500
C144        C  0.56705510  0.51641280  0.47414911     0.84400
O145        O  0.53487000  0.59295370  0.58060174    -0.77600
C146        C  0.61229361  0.52434517  0.57517699     0.84500
C147        C  0.52298277  0.47926845  0.56045310     0.84900
O148        O  0.53335052  0.49387045  0.57825763    -0.80100
O149        O  0.44521320  0.89481389  0.53417299    -0.77600
C150        C  0.52240018  0.93429262  0.51355947     0.83500
O151        O  0.47796561  0.94925843  0.60710520    -0.78700
O152        O  0.48926874  0.01573399  0.53533400    -0.80200
O153        O  0.41936687  0.97281811  0.49192485    -0.80000
O154        O  0.40917891  0.91901271  0.52701022    -0.78600
Zn155      Zn  0.47257941  0.92173034  0.54581531     1.55700
O156        O  0.46094841  0.98324306  0.48257636    -0.80000
Cd157      Cd  0.42191402  0.95724522  0.53014631     1.59700
Cd158      Cd  0.45977273  0.97389170  0.57935175     1.59600
O159        O  0.39575132  0.97371321  0.55736993    -0.80000
O160        O  0.45910396  0.95744444  0.54346084    -1.90500
Cd161      Cd  0.48114711  0.97873221  0.51852313     1.59900
O162        O  0.42138528  0.97909599  0.59273854    -0.79900
O163        O  0.51622393  0.95851446  0.51029947    -0.78600
C164        C  0.48380258  0.92486708  0.60572496     0.83900
C165        C  0.42066306  0.89674155  0.52864109     0.83600
O166        O  0.50668422  0.91858451  0.52530813    -0.77500
C167        C  0.43688398  0.98061948  0.47540070     0.84400
O168        O  0.48179877  0.91263684  0.58372248    -0.77600
C169        C  0.39856452  0.97884635  0.58204260     0.84500
C170        C  0.48650869  0.02502831  0.55877881     0.84900
O171        O  0.47695355  0.01099008  0.57753167    -0.80100
N172        N  0.49452607  0.25007968  0.72788670    -0.35700
N173        N  0.49910216  0.21059503  0.68536107    -0.56200
N174        N  0.49933961  0.25241744  0.64575032    -0.35700
N175        N  0.49788376  0.29177562  0.68881436    -0.56200
C176        C  0.49731619  0.22793638  0.74250826     0.27900
C177        C  0.49843286  0.27077250  0.74435830     0.27900
C178        C  0.50393159  0.23146616  0.62966805     0.27900
C179        C  0.50343162  0.27459908  0.63141945     0.27900
C180        C  0.49469547  0.19434155  0.70618415     0.36500
C181        C  0.49804569  0.19546450  0.66327722     0.36500
C182        C  0.49594335  0.30697686  0.71081173     0.36500
C183        C  0.49715321  0.30825163  0.66775703     0.36500
C184        C  0.50221699  0.23458439  0.76875811    -0.21000
C185        C  0.50302143  0.26156482  0.76990982    -0.21000
C186        C  0.51036803  0.24049221  0.60451256    -0.21000
C187        C  0.51017549  0.26765123  0.60563718    -0.21000
C188        C  0.49146381  0.16873430  0.69738932    -0.22000
C189        C  0.49378104  0.16939362  0.67033480    -0.22000
C190        C  0.49413683  0.33325201  0.70372409    -0.22000
C191        C  0.49457273  0.33406917  0.67654765    -0.22000
C192        C  0.49442194  0.20183868  0.73321634    -0.17400
C193        C  0.49759891  0.29778057  0.73728622    -0.17400
C194        C  0.50117845  0.30094449  0.64081913    -0.17400
C195        C  0.50126059  0.20447829  0.63676241    -0.17400
H196        H  0.50501175  0.22136699  0.78540519     0.15500
H197        H  0.50648845  0.27305761  0.78765364     0.15500
H198        H  0.51478896  0.22874797  0.58714123     0.15500
H199        H  0.51453382  0.28078473  0.58929039     0.15500
H200        H  0.48795397  0.15130344  0.70923627     0.13800
H201        H  0.49242086  0.15247304  0.65741833     0.13800
H202        H  0.49293578  0.35013585  0.71677237     0.13800
H203        H  0.49380746  0.35182668  0.66467649     0.13800
H204        H  0.48787661  0.25084103  0.70845580     0.27100
H205        H  0.49168135  0.25173096  0.66477213     0.27100
O206        O  0.44335880  0.10200671  0.96405705    -0.77600
C207        C  0.52300919  0.06414272  0.97549695     0.83500
O208        O  0.47514902  0.05152171  0.88561717    -0.78700
O209        O  0.49129768  0.98255176  0.95524719    -0.80200
O210        O  0.41971193  0.02187100  0.99855368    -0.80000
O211        O  0.40780002  0.07688953  0.96720045    -0.78600
Zn212      Zn  0.47024080  0.07658015  0.94777703     1.55700
O213        O  0.46148801  0.01250269  0.00903414    -0.80000
Cd214      Cd  0.42158823  0.03916666  0.96143225     1.59700
Cd215      Cd  0.46032946  0.02491342  0.91276747     1.59600
O216        O  0.39623651  0.02244741  0.93362523    -0.80000
O217        O  0.45882446  0.04023418  0.94900706    -1.90500
Cd218      Cd  0.48202040  0.01894226  0.97325811     1.59900
O219        O  0.42276570  0.01631633  0.89916203    -0.79900
O220        O  0.51714530  0.04010240  0.98013359    -0.78600
C221        C  0.47782190  0.07634050  0.88738631     0.83900
C222        C  0.41874660  0.09928429  0.96907602     0.83600
O223        O  0.50611575  0.07956869  0.96476178    -0.77500
C224        C  0.43693852  0.01402607  0.01529162     0.84400
O225        O  0.47528888  0.08789226  0.90972077    -0.77600
C226        C  0.39976097  0.01608709  0.90934352     0.84500
C227        C  0.48997821  0.97489078  0.93105271     0.84900
O228        O  0.48102894  0.98987692  0.91283375    -0.80100
N229        N  0.75761603  0.23718568  0.00075973    -0.35700
N230        N  0.71275405  0.20158180  0.99884185    -0.56200
N231        N  0.74865272  0.15648762  0.99697177    -0.35700
N232        N  0.79335399  0.19227520  0.00103689    -0.56200
C233        C  0.73771375  0.25407381  0.00673235     0.27900
C234        C  0.78060226  0.24914712  0.00726185     0.27900
C235        C  0.72523906  0.14433629  0.00130141     0.27900
C236        C  0.76817021  0.13933008  0.00358921     0.27900
C237        C  0.70007772  0.22479289  0.99503205     0.36500
C238        C  0.69535883  0.18245059  0.99238545     0.36500
C239        C  0.81134099  0.21175763  0.99835290     0.36500
C240        C  0.80647831  0.16941442  0.99693958     0.36500
C241        C  0.74821813  0.27717137  0.01687565    -0.21000
C242        C  0.77528035  0.27411974  0.01707318    -0.21000
C243        C  0.72990054  0.11896519  0.01039619    -0.21000
C244        C  0.75700982  0.11584209  0.01194689    -0.21000
C245        C  0.67451572  0.22038607  0.98616207    -0.22000
C246        C  0.67150734  0.19357822  0.98451964    -0.22000
C247        C  0.83597980  0.20129033  0.99248516    -0.22000
C248        C  0.83293121  0.17447218  0.99162729    -0.22000
C249        C  0.71046777  0.24976867  0.00179396    -0.17400
C250        C  0.80629583  0.23868963  0.00322733    -0.17400
C251        C  0.79569984  0.14401056  0.00096660    -0.17400
C252        C  0.69993923  0.15510923  0.99563277    -0.17400
H253        H  0.73753021  0.29455930  0.02321893     0.15500
H254        H  0.78942287  0.28870674  0.02359930     0.15500
H255        H  0.71528860  0.10418844  0.01522369     0.15500
H256        H  0.76732891  0.09817782  0.01816375     0.15500
H257        H  0.65944993  0.23495316  0.98178901     0.13800
H258        H  0.65364274  0.18343378  0.97863087     0.13800
H259        H  0.85434427  0.21184154  0.98970570     0.13800
H260        H  0.84856707  0.16028377  0.98812116     0.13800
H261        H  0.75582516  0.21976133  0.99015344     0.27100
H262        H  0.75111999  0.17442188  0.98735683     0.27100
N263        N  0.22949830  0.99572030  0.74561645    -0.35700
N264        N  0.18981115  0.99654695  0.78781735    -0.56200
N265        N  0.14780712  0.99810503  0.74820604    -0.35700
N266        N  0.18810472  0.99433617  0.70604892    -0.56200
C267        C  0.24508895  0.99110842  0.76696499     0.27900
C268        C  0.24406230  0.99043819  0.72369284     0.27900
C269        C  0.13311315  0.99457000  0.77045098     0.27900
C270        C  0.13216447  0.99278874  0.72705082     0.27900
C271        C  0.21185083  0.99992464  0.80268314     0.36500
C272        C  0.16895432  0.00096340  0.80407327     0.36500
C273        C  0.20906373  0.99680190  0.68949071     0.36500
C274        C  0.16619848  0.99675921  0.69087164     0.36500
C275        C  0.26997284  0.98313966  0.75844906    -0.21000
C276        C  0.26929338  0.98263673  0.73120113    -0.21000
C277        C  0.10760477  0.98756006  0.76329561    -0.21000
C278        C  0.10699957  0.98644393  0.73593446    -0.21000
C279        C  0.20495148  0.00620672  0.82855040    -0.22000
C280        C  0.17784301  0.00691660  0.82942245    -0.22000
C281        C  0.20049112  0.00050088  0.66365923    -0.22000
C282        C  0.17338795  0.00042035  0.66449844    -0.22000
C283        C  0.23809439  0.99562480  0.79382940    -0.17400
C284        C  0.23584191  0.99409725  0.69707109    -0.17400
C285        C  0.13977581  0.99395865  0.69992420    -0.17400
C286        C  0.14197586  0.99786497  0.79701006    -0.17400
H287        H  0.28709051  0.97856462  0.77051181     0.15500
H288        H  0.28571712  0.97753160  0.71839644     0.15500
H289        H  0.09117872  0.98346349  0.77643112     0.15500
H290        H  0.08999935  0.98132922  0.72394633     0.15500
H291        H  0.21804236  0.00953183  0.84521567     0.13800
H292        H  0.16603511  0.01100534  0.84687352     0.13800
H293        H  0.21250146  0.00262470  0.64599979     0.13800
H294        H  0.16047517  0.00250615  0.64750159     0.13800
H295        H  0.21122261  0.00503305  0.74596260     0.27100
H296        H  0.16673942  0.00582509  0.74736666     0.27100
N297        N  0.00544880  0.75134395  0.22866848    -0.35700
N298        N  0.99965487  0.71106481  0.18844523    -0.56200
N299        N  0.99998468  0.75064652  0.14699886    -0.35700
N300        N  0.00387615  0.79116809  0.18770757    -0.56200
C301        C  0.99882175  0.73054502  0.24397540     0.27900
C302        C  0.00226936  0.77318499  0.24359171     0.27900
C303        C  0.99207391  0.72932090  0.13303999     0.27900
C304        C  0.99336155  0.77226908  0.13274675     0.27900
C305        C  0.00450337  0.69578633  0.20985683     0.36500
C306        C  0.00279566  0.69545735  0.16701214     0.36500
C307        C  0.01105816  0.80634976  0.20853058     0.36500
C308        C  0.00716537  0.80604136  0.16572365     0.36500
C309        C  0.99168857  0.73921492  0.26909481    -0.21000
C310        C  0.99392491  0.76619879  0.26887077    -0.21000
C311        C  0.98055800  0.73743384  0.10941468    -0.21000
C312        C  0.98130334  0.76461082  0.10926038    -0.21000
C313        C  0.01066285  0.67035771  0.20207428    -0.22000
C314        C  0.00987319  0.67020598  0.17488375    -0.22000
C315        C  0.01880187  0.83100254  0.19980482    -0.22000
C316        C  0.01642331  0.83077761  0.17267527    -0.22000
C317        C  0.00087977  0.70391093  0.23631780    -0.17400
C318        C  0.00850108  0.79899296  0.23542087    -0.17400
C319        C  0.99961593  0.79849518  0.13975486    -0.17400
C320        C  0.99607463  0.70281743  0.14080594    -0.17400
H321        H  0.98589793  0.72732862  0.28595605     0.15500
H322        H  0.99017251  0.77914448  0.28552128     0.15500
H323        H  0.97256410  0.72506448  0.09389109     0.15500
H324        H  0.97414812  0.77727804  0.09350766     0.15500
H325        H  0.01482666  0.65356499  0.21465715     0.13800
H326        H  0.01326189  0.65320618  0.16238753     0.13800
H327        H  0.02510546  0.84753287  0.21176481     0.13800
H328        H  0.02068882  0.84707906  0.15957510     0.13800
H329        H  0.01463241  0.75048590  0.21023315     0.27100
H330        H  0.01183683  0.75035317  0.16387171     0.27100
N331        N  0.24907936  0.73520247  0.49739972    -0.35700
N332        N  0.21107716  0.69375945  0.49198042    -0.56200
N333        N  0.25340517  0.65426299  0.49321530    -0.35700
N334        N  0.29128024  0.69664365  0.49946793    -0.56200
C335        C  0.22633558  0.74829875  0.50245327     0.27900
C336        C  0.26901868  0.74998520  0.50704048     0.27900
C337        C  0.23190244  0.63894892  0.49757883     0.27900
C338        C  0.27518117  0.64034848  0.50049869     0.27900
C339        C  0.19535183  0.71458834  0.48612456     0.36500
C340        C  0.19768989  0.67199289  0.48468226     0.36500
C341        C  0.30581996  0.71887876  0.49803709     0.36500
C342        C  0.30826910  0.67639925  0.49589206     0.36500
C343        C  0.23183312  0.77164971  0.51555610    -0.21000
C344        C  0.25888505  0.77274728  0.51840568    -0.21000
C345        C  0.24016788  0.61467919  0.50718495    -0.21000
C346        C  0.26749237  0.61544029  0.50866980    -0.21000
C347        C  0.17188939  0.70610754  0.47490150    -0.22000
C348        C  0.17334353  0.67909040  0.47401648    -0.22000
C349        C  0.33215236  0.71282084  0.49347896    -0.22000
C350        C  0.33374402  0.68590407  0.49216403    -0.22000
C351        C  0.20122428  0.74087830  0.49295208    -0.17400
C352        C  0.29614935  0.74424361  0.50406501    -0.17400
C353        C  0.30171785  0.64955446  0.49935361    -0.17400
C354        C  0.20529700  0.64595135  0.49142645    -0.17400
H355        H  0.21786232  0.78664260  0.52171601     0.15500
H356        H  0.26987494  0.78869005  0.52737615     0.15500
H357        H  0.22784094  0.59798840  0.51208844     0.15500
H358        H  0.28022041  0.59954681  0.51525005     0.15500
H359        H  0.15523319  0.71806506  0.46869297     0.13800
H360        H  0.15793716  0.66605712  0.46706379     0.13800
H361        H  0.34863114  0.72632261  0.49224352     0.13800
H362        H  0.35179327  0.67464522  0.48972563     0.13800
H363        H  0.25115068  0.71903379  0.48489109     0.27100
H364        H  0.25338853  0.67238428  0.48361768     0.27100
N365        N  0.73586758  0.49611266  0.24489748    -0.35700
N366        N  0.69384431  0.49170706  0.20563954    -0.56200
N367        N  0.65464063  0.49241825  0.24781285    -0.35700
N368        N  0.69690515  0.49418071  0.28717663    -0.56200
C369        C  0.75050702  0.49186231  0.22285710     0.27900
C370        C  0.75205702  0.49299846  0.26607200     0.27900
C371        C  0.63931135  0.48533589  0.22700895     0.27900
C372        C  0.64092554  0.48707384  0.27020774     0.27900
C373        C  0.71447521  0.49581982  0.18909605     0.36500
C374        C  0.67170522  0.49393170  0.19075565     0.36500
C375        C  0.71860357  0.50003093  0.30168718     0.36500
C376        C  0.67587148  0.49822784  0.30319978     0.36500
C377        C  0.77651366  0.48665991  0.23010971    -0.21000
C378        C  0.77744164  0.48720124  0.25736400    -0.21000
C379        C  0.61545296  0.47555650  0.23629143    -0.21000
C380        C  0.61642587  0.47677860  0.26360425    -0.21000
C381        C  0.70544764  0.50039103  0.16351798    -0.22000
C382        C  0.67835371  0.49929850  0.16457413    -0.22000
C383        C  0.71135781  0.50766408  0.32707856    -0.22000
C384        C  0.68429019  0.50636006  0.32810201    -0.22000
C385        C  0.74140063  0.49372445  0.19633740    -0.17400
C386        C  0.74495109  0.49680259  0.29296707    -0.17400
C387        C  0.64927852  0.49305281  0.29627185    -0.17400
C388        C  0.64570585  0.48902532  0.19993197    -0.17400
H389        H  0.79317163  0.48291466  0.21713041     0.15500
H390        H  0.79492233  0.48399080  0.26937749     0.15500
H391        H  0.59888472  0.46871503  0.22458280     0.15500
H392        H  0.60077189  0.47104117  0.27705510     0.15500
H393        H  0.71716520  0.50381759  0.14587269     0.13800
H394        H  0.66509396  0.50174188  0.14785999     0.13800
H395        H  0.72426808  0.51309489  0.34331912     0.13800
H396        H  0.67222210  0.51068440  0.34530841     0.13800
H397        H  0.71672238  0.50343903  0.24533205     0.27100
H398        H  0.67200075  0.50323928  0.24676491     0.27100
O399        O  0.89740903  0.52658640  0.44010835    -0.77600
C400        C  0.93623952  0.52223718  0.51962616     0.83500
O401        O  0.94372467  0.60926752  0.46150299    -0.78700
O402        O  0.01686630  0.54508585  0.48509471    -0.80200
O403        O  0.97941406  0.49508185  0.41732275    -0.80000
O404        O  0.92206329  0.52191859  0.40406236    -0.78600
Zn405      Zn  0.92227012  0.54581017  0.46525150     1.55700
O406        O  0.99019640  0.48838663  0.45975426    -0.80000
Cd407      Cd  0.95964216  0.53037823  0.41679658     1.59700
Cd408      Cd  0.97244772  0.58212952  0.45114020     1.59600
O409        O  0.97472584  0.55584727  0.38864668    -0.80000
O410        O  0.95859794  0.54560754  0.45308850    -1.90500
Cd411      Cd  0.98139163  0.52465103  0.47776002     1.59900
O412        O  0.98095023  0.59184892  0.41251718    -0.79900
O413        O  0.96056364  0.51859856  0.51338922    -0.78600
C414        C  0.91887007  0.60596316  0.46427282     0.83900
C415        C  0.89988606  0.52013815  0.41573945     0.83600
O416        O  0.92002014  0.53161091  0.50269421    -0.77500
C417        C  0.98886398  0.48053870  0.43562321     0.84400
O418        O  0.90900210  0.58303305  0.46576349    -0.77600
C419        C  0.98101775  0.57999721  0.39025986     0.84500
C420        C  0.02366313  0.56911332  0.48182726     0.84900
O421        O  0.00788996  0.58588032  0.47139337    -0.80100
O422        O  0.05357645  0.89509292  0.46410339    -0.77600
C423        C  0.97794857  0.93698667  0.47848673     0.83500
O424        O  0.02953723  0.94944591  0.38654114    -0.78700
O425        O  0.01283710  0.01662869  0.45634419    -0.80200
O426        O  0.08002183  0.97255878  0.50386304    -0.80000
O427        O  0.09062199  0.91692354  0.47179338    -0.78600
Zn428      Zn  0.02888395  0.92289462  0.44909047     1.55700
O429        O  0.03874676  0.98645966  0.51037232    -0.80000
Cd430      Cd  0.07976545  0.95595608  0.46619860     1.59700
Cd431      Cd  0.04487504  0.97380788  0.41543289     1.59600
O432        O  0.10755479  0.97245910  0.44023876    -0.80000
O433        O  0.04322317  0.95787444  0.45145427    -1.90500
Cd434      Cd  0.01996787  0.98028202  0.47438199     1.59900
O435        O  0.08332186  0.98052195  0.40448034    -0.79900
O436        O  0.98431912  0.96103763  0.48213551    -0.78600
C437        C  0.02320385  0.92532691  0.38842933     0.83900
C438        C  0.07778433  0.89534391  0.47106010     0.83600
O439        O  0.99362625  0.92101585  0.46703211    -0.77500
C440        C  0.06214153  0.98237972  0.51888556     0.84400
O441        O  0.02281991  0.91386281  0.41093882    -0.77600
C442        C  0.10569730  0.97983060  0.41606734     0.84500
C443        C  0.01666626  0.02475115  0.43263394     0.84900
O444        O  0.02725983  0.01012195  0.41513292    -0.80100
O445        O  0.94976573  0.39326234  0.03326651    -0.77600
C446        C  0.02659988  0.43691468  0.01668082     0.83500
O447        O  0.97402461  0.44801942  0.10858689    -0.78700
O448        O  0.98879249  0.51595618  0.03696574    -0.80200
O449        O  0.92318056  0.46906173  0.99106207    -0.80000
O450        O  0.91280587  0.41607063  0.02705644    -0.78600
Zn451      Zn  0.97573468  0.42140340  0.04606642     1.55700
O452        O  0.96363549  0.48431395  0.98354086    -0.80000
Cd453      Cd  0.92477820  0.45453642  0.02918301     1.59700
Cd454      Cd  0.96001027  0.47339747  0.07949437     1.59600
O455        O  0.89766262  0.47261037  0.05360004    -0.80000
O456        O  0.96116429  0.45663960  0.04370824    -1.90500
Cd457      Cd  0.98277400  0.47912776  0.01975575     1.59900
O458        O  0.92131131  0.48113084  0.08967875    -0.79900
O459        O  0.01874125  0.46049288  0.01291868    -0.78600
C460        C  0.98052333  0.42383847  0.10694210     0.83900
C461        C  0.92492862  0.39419701  0.02856375     0.83600
O462        O  0.01141898  0.41999472  0.02765262    -0.77500
C463        C  0.94025920  0.47925975  0.97555949     0.84400
O464        O  0.98183343  0.41242023  0.08445156    -0.77600
C465        C  0.89921727  0.48048649  0.07749719     0.84500
C466        C  0.98654990  0.52446856  0.06070763     0.84900
O467        O  0.97848623  0.50978373  0.07959641    -0.80100
N468        N  0.26950215  0.00121371  0.24398231    -0.35700
N469        N  0.31009131  0.00297462  0.20356060    -0.56200
N470        N  0.35060901  0.99813955  0.24465489    -0.35700
N471        N  0.30930801  0.99825059  0.28505427    -0.56200
C472        C  0.25525709  0.00890768  0.22261153     0.27900
C473        C  0.25472389  0.00637980  0.26574275     0.27900
C474        C  0.36576193  0.00435804  0.22337092     0.27900
C475        C  0.36533691  0.00210989  0.26679562     0.27900
C476        C  0.28865449  0.99991358  0.18776176     0.36500
C477        C  0.33150993  0.99900146  0.18801994     0.36500
C478        C  0.28758904  0.99376587  0.30006946     0.36500
C479        C  0.33043688  0.99257527  0.30049152     0.36500
C480        C  0.23124411  0.01936349  0.23087382    -0.21000
C481        C  0.23082735  0.01757947  0.25813589    -0.21000
C482        C  0.39059514  0.01205062  0.23206103    -0.21000
C483        C  0.39029831  0.01071645  0.25946924    -0.21000
C484        C  0.29643310  0.99420308  0.16204475    -0.22000
C485        C  0.32357406  0.99380304  0.16214358    -0.22000
C486        C  0.29490436  0.98546793  0.32522178    -0.22000
C487        C  0.32203461  0.98464197  0.32548959    -0.22000
C488        C  0.26223994  0.00405784  0.19590449    -0.17400
C489        C  0.26134532  0.99895055  0.29195105    -0.17400
C490        C  0.35718181  0.99674705  0.29323858    -0.17400
C491        C  0.35814624  0.00172235  0.19636517    -0.17400
H492        H  0.21530371  0.02662152  0.21847912     0.15500
H493        H  0.21453491  0.02331615  0.27083649     0.15500
H494        H  0.40726027  0.01780747  0.21990689     0.15500
H495        H  0.40670144  0.01521304  0.27250396     0.15500
H496        H  0.28389425  0.99107969  0.14491348     0.13800
H497        H  0.33602254  0.99024778  0.14502739     0.13800
H498        H  0.28205310  0.98088599  0.34176881     0.13800
H499        H  0.33418929  0.97923249  0.34234198     0.13800
H500        H  0.28648520  0.98961836  0.24350697     0.27100
H501        H  0.33227669  0.98898914  0.24395283     0.27100
O502        O  0.04786300  0.10950040  0.03138939    -0.77600
C503        C  0.97279810  0.06339631  0.02032402     0.83500
O504        O  0.02300860  0.05505572  0.11009272    -0.78700
O505        O  0.01301883  0.98610829  0.03857183    -0.80200
O506        O  0.07944470  0.03118494  0.99512184    -0.80000
O507        O  0.08548901  0.08764741  0.02603352    -0.78600
Zn508      Zn  0.02406546  0.08108871  0.04757348     1.55700
O509        O  0.03899886  0.01816119  0.98445601    -0.80000
Cd510      Cd  0.07576947  0.04881367  0.03176664     1.59700
Cd511      Cd  0.03972329  0.03031605  0.08170595     1.59600
O512        O  0.10310058  0.03422656  0.05838842    -0.80000
O513        O  0.03914919  0.04612010  0.04539287    -1.90500
Cd514      Cd  0.01849122  0.02298208  0.02074877     1.59900
O515        O  0.07844829  0.02529222  0.09396504    -0.79900
O516        O  0.98124808  0.04026089  0.01482678    -0.78600
C517        C  0.01803481  0.07958565  0.10836614     0.83900
C518        C  0.07244733  0.10914077  0.02563373     0.83600
O519        O  0.98758256  0.08036704  0.03154311    -0.77500
C520        C  0.06334697  0.02169774  0.97828268     0.84400
O521        O  0.01893067  0.09114460  0.08590132    -0.77600
C522        C  0.10084447  0.02735781  0.08259932     0.84500
C523        C  0.01467406  0.97809403  0.06257125     0.84900
O524        O  0.02257937  0.99334095  0.08110875    -0.80100
N525        N  0.99225407  0.25266667  0.27047827    -0.35700
N526        N  0.99356571  0.21195685  0.31083367    -0.56200
N527        N  0.99740229  0.25254348  0.35226056    -0.35700
N528        N  0.99335461  0.29318517  0.31161895    -0.56200
C529        C  0.98827010  0.23125454  0.25507600     0.27900
C530        C  0.98677458  0.27415399  0.25560106     0.27900
C531        C  0.99517109  0.23097231  0.36780132     0.27900
C532        C  0.99500496  0.27400610  0.36800188     0.27900
C533        C  0.99571915  0.19635046  0.28914962     0.36500
C534        C  0.99732766  0.19624832  0.33218066     0.36500
C535        C  0.99525822  0.30872286  0.28990057     0.36500
C536        C  0.99887630  0.30857768  0.33277434     0.36500
C537        C  0.98046955  0.23921432  0.22991360    -0.21000
C538        C  0.97945671  0.26626741  0.23025454    -0.21000
C539        C  0.99211620  0.23883519  0.39401597    -0.21000
C540        C  0.99166886  0.26596996  0.39409861    -0.21000
C541        C  0.00009473  0.17050696  0.29673127    -0.22000
C542        C  0.00098771  0.17038442  0.32390437    -0.22000
C543        C  0.00162854  0.33418974  0.29729118    -0.22000
C544        C  0.00398540  0.33409975  0.32439238    -0.22000
C545        C  0.99321836  0.20483317  0.26251488    -0.17400
C546        C  0.99013164  0.30068455  0.26353751    -0.17400
C547        C  0.99767967  0.30057230  0.35973043    -0.17400
C548        C  0.99688176  0.20444512  0.35916367    -0.17400
H549        H  0.97627166  0.22684403  0.21294696     0.15500
H550        H  0.97439595  0.27871854  0.21354159     0.15500
H551        H  0.99055906  0.22633925  0.41135726     0.15500
H552        H  0.98983348  0.27835912  0.41148043     0.15500
H553        H  0.00234796  0.15347265  0.28402096     0.13800
H554        H  0.00404491  0.15309287  0.33610434     0.13800
H555        H  0.00415565  0.35113786  0.28451329     0.13800
H556        H  0.00872731  0.35101115  0.33653913     0.13800
H557        H  0.00153218  0.25272267  0.28889884     0.27100
H558        H  0.00293977  0.25253698  0.33240602     0.27100
N559        N  0.24858242  0.26415477  0.00082178    -0.35700
N560        N  0.29088829  0.30279572  0.99494416    -0.56200
N561        N  0.25231121  0.34532088  0.00024123    -0.35700
N562        N  0.20983562  0.30636015  0.00298175    -0.56200
C563        C  0.26877596  0.24801461  0.99388155     0.27900
C564        C  0.22595235  0.25008835  0.99888929     0.27900
C565        C  0.27417369  0.35951165  0.99440775     0.27900
C566        C  0.23106883  0.36130887  0.99692625     0.27900
C567        C  0.30582946  0.28063532  0.99568710     0.36500
C568        C  0.30783977  0.32331205  0.99656058     0.36500
C569        C  0.19350486  0.28594911  0.00816623     0.36500
C570        C  0.19535078  0.32849144  0.00636613     0.36500
C571        C  0.25880007  0.22323129  0.98802902    -0.21000
C572        C  0.23184054  0.22460326  0.99103232    -0.21000
C573        C  0.26678461  0.38503378  0.98790318    -0.21000
C574        C  0.23959072  0.38613966  0.98939744    -0.21000
C575        C  0.33240630  0.28714698  0.99712730    -0.22000
C576        C  0.33366940  0.31408888  0.99786772    -0.22000
C577        C  0.16851253  0.29510548  0.01469585    -0.22000
C578        C  0.16964182  0.32200995  0.01346853    -0.22000
C579        C  0.29605758  0.25453812  0.99414918    -0.17400
C580        C  0.20022336  0.25910558  0.00530395    -0.17400
C581        C  0.20431011  0.35447827  0.00161999    -0.17400
C582        C  0.30066219  0.35033415  0.99556561    -0.17400
H583        H  0.26967814  0.20572735  0.98245340     0.15500
H584        H  0.21816610  0.20850747  0.98809159     0.15500
H585        H  0.27965516  0.40119716  0.98261273     0.15500
H586        H  0.22748770  0.40335682  0.98561224     0.15500
H587        H  0.34921975  0.27391175  0.99754625     0.13800
H588        H  0.35164261  0.32555979  0.99899620     0.13800
H589        H  0.15115574  0.28359999  0.01944540     0.13800
H590        H  0.15330300  0.33527365  0.01725898     0.13800
H591        H  0.25043546  0.28263842  0.00929683     0.27100
H592        H  0.25212733  0.32664470  0.00850424     0.27100
C593        C  0.15509864  0.20480442  0.03075154    -0.11000
C594        C  0.13997397  0.19948356  0.00803537     0.11600
C595        C  0.14287876  0.21538413  0.98511165    -0.02800
C596        C  0.16284437  0.23465784  0.98493139    -0.05500
C597        C  0.17871896  0.23920716  0.00732684    -0.16300
C598        C  0.17420588  0.22483569  0.03095773     0.02600
C599        C  0.12138304  0.17696168  0.00926200     0.12600
C600        C  0.12429824  0.21280141  0.96153793     0.63200
H601        H  0.16615443  0.24654238  0.96738662     0.12600
C602        C  0.18924093  0.23097768  0.05628794     0.55300
H603        H  0.15188270  0.19291154  0.04831524     0.08400
C604        C  0.12924310  0.15137217  0.00154084    -0.05400
C605        C  0.11136396  0.13054389  0.00502674    -0.06100
C606        C  0.08714332  0.13375879  0.01859109    -0.15700
C607        C  0.07984601  0.15944619  0.02739390    -0.01300
C608        C  0.09682685  0.18072852  0.02164925    -0.08800
C609        C  0.15727878  0.14557611  0.99206899     0.65400
H610        H  0.11710230  0.11102500  0.99858133     0.10900
C611        C  0.05543152  0.16443193  0.04429400     0.63800
H612        H  0.09178229  0.20045171  0.02809618     0.08200
F613        F  0.21600493  0.22678041  0.05251942    -0.19200
F614        F  0.18104768  0.21536897  0.07726809    -0.15500
F615        F  0.18506841  0.25699911  0.06323190    -0.18900
F616        F  0.09872955  0.21822900  0.96962718    -0.22300
F617        F  0.12514295  0.18763038  0.95124682    -0.23800
F618        F  0.13076730  0.23016821  0.94136325    -0.17800
F619        F  0.05647985  0.14897927  0.06691923    -0.20300
F620        F  0.03285514  0.15861669  0.02998067    -0.21400
F621        F  0.05360830  0.19044666  0.05233503    -0.18600
F622        F  0.16053095  0.11942527  0.98500477    -0.18700
F623        F  0.17492011  0.15106571  0.01229328    -0.22500
F624        F  0.16360875  0.16078147  0.97026973    -0.24100
C625        C  0.02253513  0.16114146  0.20858934    -0.11000
C626        C  0.99992402  0.14832571  0.19907587     0.11600
C627        C  0.97509877  0.15298279  0.21127381    -0.02800
C628        C  0.97362012  0.17137419  0.23216916    -0.05500
C629        C  0.99613640  0.18491188  0.24098390    -0.16300
C630        C  0.02104870  0.17965411  0.22925269     0.02600
C631        C  0.00300092  0.13067119  0.17577236     0.12600
C632        C  0.95040696  0.13861455  0.20216975     0.63200
H633        H  0.95486425  0.17555563  0.24168683     0.12600
C634        C  0.04589113  0.19365472  0.23853042     0.55300
H635        H  0.04135315  0.15684053  0.19923540     0.08400
C636        C  0.00448923  0.14078449  0.14970303    -0.05400
C637        C  0.00865296  0.12320107  0.12861566    -0.06100
C638        C  0.01180604  0.09583126  0.13253116    -0.15700
C639        C  0.00996256  0.08573175  0.15896824    -0.01300
C640        C  0.00577581  0.10355733  0.18007274    -0.08800
C641        C  0.00213053  0.17016330  0.14418549     0.65400
H642        H  0.01003884  0.13111303  0.10872401     0.10900
C643        C  0.01229856  0.05655867  0.16539814     0.63800
H644        H  0.00489937  0.09654415  0.20036543     0.08200
F645        F  0.06788003  0.18624753  0.22391572    -0.19200
F646        F  0.05069933  0.18767446  0.26488310    -0.15500
F647        F  0.04274905  0.22057749  0.23588316    -0.18900
F648        F  0.95361481  0.11184067  0.20596507    -0.22300
F649        F  0.94587940  0.14340612  0.17552796    -0.23800
F650        F  0.92821856  0.14658281  0.21616282    -0.17800
F651        F  0.00859934  0.05151855  0.19217365    -0.20300
F652        F  0.03720340  0.04745379  0.15871534    -0.21400
F653        F  0.99329051  0.04265039  0.15155246    -0.18600
F654        F  0.00273525  0.17568595  0.11726480    -0.18700
F655        F  0.02288742  0.18336547  0.15600726    -0.22500
F656        F  0.97855210  0.17974600  0.15422011    -0.24100
C657        C  0.20016423  0.98760200  0.15649468    -0.11000
C658        C  0.19815061  0.00966009  0.13989614     0.11600
C659        C  0.21839719  0.02887451  0.13999188    -0.02800
C660        C  0.23940429  0.02607578  0.15812810    -0.05500
C661        C  0.24084575  0.00451440  0.17552197    -0.16300
C662        C  0.22163173  0.98431150  0.17392898     0.02600
C663        C  0.17334684  0.01339859  0.12464364     0.12600
C664        C  0.21753382  0.05240196  0.12134677     0.63200
H665        H  0.25456324  0.04104552  0.15939151     0.12600
C666        C  0.22399835  0.95924041  0.19023596     0.55300
H667        H  0.18437875  0.97323802  0.15611951     0.08400
C668        C  0.16797495  0.99977179  0.10073629    -0.05400
C669        C  0.14390814  0.00479407  0.08759481    -0.06100
C670        C  0.12511585  0.02232364  0.09804755    -0.15700
C671        C  0.13047731  0.03581057  0.12207574    -0.01300
C672        C  0.15452278  0.03082878  0.13511334    -0.08800
C673        C  0.18739372  0.97993500  0.08930804     0.65400
H674        H  0.13937835  0.99481922  0.06914858     0.10900
C675        C  0.11132430  0.05592582  0.13353948     0.63800
H676        H  0.15896826  0.04062392  0.15368402     0.08200
F677        F  0.20509413  0.94090301  0.18306933    -0.19200
F678        F  0.22075219  0.96466803  0.21689351    -0.15500
F679        F  0.24865986  0.94803394  0.18628902    -0.18900
F680        F  0.19669865  0.06877553  0.12803717    -0.22300
F681        F  0.21428423  0.04398928  0.09545183    -0.23800
F682        F  0.24063515  0.06692072  0.12252496    -0.17800
F683        F  0.12205732  0.06916081  0.15500170    -0.20300
F684        F  0.08867262  0.04338013  0.14207567    -0.21400
F685        F  0.10476811  0.07442288  0.11442735    -0.18600
F686        F  0.17902464  0.97037256  0.06498085    -0.18700
F687        F  0.19000340  0.95883890  0.10645982    -0.22500
F688        F  0.21184802  0.99149376  0.08575187    -0.24100
C689        C  0.15069536  0.40251203  0.02218470    -0.11000
C690        C  0.13510450  0.40257812  0.99913620     0.11600
C691        C  0.14521762  0.39162123  0.97537846    -0.02800
C692        C  0.16948113  0.37799760  0.97636925    -0.05500
C693        C  0.18358357  0.37531547  0.00024252    -0.16300
C694        C  0.17479060  0.38864445  0.02327411     0.02600
C695        C  0.10702785  0.41087831  0.00165757     0.12600
C696        C  0.13001421  0.39364341  0.94944594     0.63200
H697        H  0.17683948  0.36787773  0.95893446     0.12600
C698        C  0.19006289  0.38687630  0.04916788     0.55300
H699        H  0.14276884  0.41165654  0.03991583     0.08400
C700        C  0.08777845  0.39342891  0.01178637    -0.05400
C701        C  0.06177908  0.40260953  0.01523401    -0.06100
C702        C  0.05428185  0.42875166  0.00936380    -0.15700
C703        C  0.07369792  0.44601239  0.99827299    -0.01300
C704        C  0.09979974  0.43660289  0.99480040    -0.08800
C705        C  0.09484320  0.36528133  0.01951531     0.65400
H706        H  0.04722239  0.38930590  0.02338764     0.10900
C707        C  0.06751254  0.47423864  0.99021149     0.63800
H708        H  0.11507080  0.44941682  0.98711359     0.08200
F709        F  0.19166229  0.36096019  0.05744874    -0.19200
F710        F  0.17806753  0.40130512  0.06915543    -0.15500
F711        F  0.21532744  0.39657061  0.04553590    -0.18900
F712        F  0.12694060  0.41985245  0.94265555    -0.22300
F713        F  0.10532916  0.38229137  0.95205035    -0.23800
F714        F  0.14311259  0.38109719  0.92886725    -0.17800
F715        F  0.08905755  0.48649681  0.97863997    -0.20300
F716        F  0.06047067  0.48880364  0.01232101    -0.21400
F717        F  0.04713874  0.47454313  0.97184666    -0.18600
F718        F  0.07283709  0.35105401  0.02723169    -0.18700
F719        F  0.11245087  0.36540889  0.04052304    -0.22500
F720        F  0.10625277  0.35237430  0.99823031    -0.24100
C721        C  0.96683763  0.35108987  0.21268037    -0.11000
C722        C  0.99069655  0.35657898  0.19959457     0.11600
C723        C  0.01471451  0.34588821  0.20926992    -0.02800
C724        C  0.01367069  0.32764342  0.23022352    -0.05500
C725        C  0.98965355  0.32117051  0.24247468    -0.16300
C726        C  0.96596823  0.33379602  0.23446772     0.02600
C727        C  0.98972244  0.37350955  0.17566349     0.12600
C728        C  0.04124157  0.35427849  0.19799223     0.63200
H729        H  0.03161217  0.31831105  0.23737532     0.12600
C730        C  0.94011172  0.32911114  0.24902774     0.55300
H731        H  0.94886530  0.36030807  0.20545303     0.08400
C732        C  0.98507283  0.36283450  0.15021763    -0.05400
C733        C  0.98334583  0.38006550  0.12849030    -0.06100
C734        C  0.98506815  0.40764170  0.13137827    -0.15700
C735        C  0.98948168  0.41826377  0.15720998    -0.01300
C736        C  0.99190561  0.40079508  0.17886064    -0.08800
C737        C  0.98101669  0.33341981  0.14614554     0.65400
H738        H  0.97959232  0.37191332  0.10901520     0.10900
C739        C  0.99140417  0.44766998  0.16237927     0.63800
H740        H  0.99493560  0.40829463  0.19875425     0.08200
F741        F  0.91955288  0.34370754  0.23826081    -0.19200
F742        F  0.94284597  0.33630609  0.27536241    -0.15500
F743        F  0.93334898  0.30280403  0.24771691    -0.18900
F744        F  0.04425112  0.38112403  0.20124052    -0.22300
F745        F  0.04270511  0.34836545  0.17126911    -0.23800
F746        F  0.06211391  0.34183172  0.21070872    -0.17800
F747        F  0.99863607  0.45305459  0.18833551    -0.20300
F748        F  0.96710057  0.45947144  0.15790526    -0.21400
F749        F  0.01026889  0.45870072  0.14592056    -0.18600
F750        F  0.97664128  0.32724084  0.11973205    -0.18700
F751        F  0.95931241  0.32510538  0.16053987    -0.22500
F752        F  0.00306064  0.31957533  0.15451746    -0.24100
C753        C  0.98032735  0.14566423  0.40210208    -0.11000
C754        C  0.00551557  0.13435139  0.40483888     0.11600
C755        C  0.02816702  0.14826121  0.39599343    -0.02800
C756        C  0.02452440  0.17298925  0.38410819    -0.05500
C757        C  0.99916378  0.18324594  0.37936587    -0.16300
C758        C  0.97664085  0.16982024  0.38901911     0.02600
C759        C  0.00656826  0.10648278  0.41310068     0.12600
C760        C  0.05632278  0.13765574  0.39702800     0.63200
H761        H  0.04154018  0.18334930  0.37622416     0.12600
C762        C  0.94883797  0.18029308  0.38438236     0.55300
H763        H  0.96338259  0.13453136  0.40890148     0.08400
C764        C  0.01057150  0.09876489  0.43970839    -0.05400
C765        C  0.01254997  0.07173015  0.44551984    -0.06100
C766        C  0.01038852  0.05247403  0.42551227    -0.15700
C767        C  0.00442188  0.06046954  0.39904850    -0.01300
C768        C  0.00289445  0.08748256  0.39338051    -0.08800
C769        C  0.01308001  0.11914666  0.46155519     0.65400
H770        H  0.01677780  0.06552615  0.46565742     0.10900
C771        C  0.99953291  0.04097422  0.37666475     0.63800
H772        H  0.99930337  0.09412111  0.37323503     0.08200
F773        F  0.92980562  0.16350509  0.39448949    -0.19200
F774        F  0.94418835  0.18322010  0.35748515    -0.15500
F775        F  0.94588439  0.20439329  0.39671865    -0.18900
F776        F  0.06632016  0.13619525  0.37149169    -0.22300
F777        F  0.05835161  0.11296133  0.40836168    -0.23800
F778        F  0.07185175  0.15472898  0.41162145    -0.17800
F779        F  0.98787900  0.05299040  0.35488419    -0.20300
F780        F  0.98268522  0.02126956  0.38514648    -0.21400
F781        F  0.02324215  0.03006123  0.36840763    -0.18600
F782        F  0.01674609  0.10761276  0.48619865    -0.18700
F783        F  0.99030304  0.13427598  0.46253701    -0.22500
F784        F  0.03443978  0.13533875  0.45653977    -0.24100
C785        C  0.20445781  0.97358381  0.33425294    -0.11000
C786        C  0.19672504  0.99656729  0.34761629     0.11600
C787        C  0.21131692  0.02006976  0.34402468    -0.02800
C788        C  0.23264935  0.01998343  0.32602639    -0.05500
C789        C  0.23967276  0.99721783  0.31189539    -0.16300
C790        C  0.22566832  0.97351378  0.31621100     0.02600
C791        C  0.17320433  0.99506842  0.36525501     0.12600
C792        C  0.20425413  0.04507767  0.35896131     0.63200
H793        H  0.24385980  0.03777920  0.32250319     0.12600
C794        C  0.23311088  0.94833093  0.30175251     0.55300
H795        H  0.19339188  0.95570909  0.33786023     0.08400
C796        C  0.14721491  0.99504089  0.35493556    -0.05400
C797        C  0.12599597  0.99098390  0.37246920    -0.06100
C798        C  0.12972673  0.98678806  0.39998030    -0.15700
C799        C  0.15592462  0.98828388  0.41038299    -0.01300
C800        C  0.17718635  0.99189595  0.39260828    -0.08800
C801        C  0.14191935  0.99867271  0.32539216     0.65400
H802        H  0.10619242  0.99026884  0.36436050     0.10900
C803        C  0.16185720  0.98623316  0.43988855     0.63800
H804        H  0.19735874  0.99177693  0.39986440     0.08200
F805        F  0.23140874  0.95215617  0.27462519    -0.19200
F806        F  0.21658509  0.92768013  0.30844543    -0.15500
F807        F  0.25870596  0.94113559  0.30824154    -0.18900
F808        F  0.20659268  0.04088741  0.38597732    -0.22300
F809        F  0.17853640  0.05246693  0.35322476    -0.23800
F810        F  0.22073896  0.06573569  0.35219958    -0.17800
F811        F  0.15632211  0.96110871  0.44885493    -0.20300
F812        F  0.14680329  0.00445351  0.45368519    -0.21400
F813        F  0.18818454  0.99131127  0.44543386    -0.18600
F814        F  0.11511600  0.00015435  0.31985080    -0.18700
F815        F  0.15227749  0.97767390  0.31135325    -0.22500
F816        F  0.15349957  0.02166489  0.31651292    -0.24100
C817        C  0.00619775  0.41886334  0.39626202    -0.11000
C818        C  0.99931706  0.39932615  0.41459900     0.11600
C819        C  0.99372442  0.40633304  0.44116199    -0.02800
C820        C  0.99210809  0.43323836  0.44775394    -0.05500
C821        C  0.99646503  0.45305143  0.42870779    -0.16300
C822        C  0.00527198  0.44572638  0.40288552     0.02600
C823        C  0.99730024  0.37185481  0.40482053     0.12600
C824        C  0.98943704  0.38544402  0.46227929     0.63200
H825        H  0.98621945  0.43894008  0.46760590     0.12600
C826        C  0.01341807  0.46582066  0.38206433     0.55300
H827        H  0.01130410  0.41289574  0.37624571     0.08400
C828        C  0.97383953  0.36240228  0.39281141    -0.05400
C829        C  0.97408750  0.33718946  0.38131365    -0.06100
C830        C  0.99735450  0.32203825  0.37993736    -0.15700
C831        C  0.02060777  0.33119513  0.39275230    -0.01300
C832        C  0.02003570  0.35600704  0.40513150    -0.08800
C833        C  0.94935267  0.37969633  0.39013576     0.65400
H834        H  0.95672087  0.33007395  0.37098177     0.10900
C835        C  0.04687913  0.31664822  0.39280793     0.63800
H836        H  0.03793004  0.36364512  0.41413532     0.08200
F837        F  0.02841349  0.45432459  0.36216123    -0.19200
F838        F  0.02860742  0.48537548  0.39353242    -0.15500
F839        F  0.99119404  0.47688691  0.37048463    -0.18900
F840        F  0.01200521  0.37016179  0.46459962    -0.22300
F841        F  0.96844435  0.36945574  0.45546459    -0.23800
F842        F  0.98409134  0.39645061  0.48684646    -0.17800
F843        F  0.06512069  0.33094399  0.37834687    -0.20300
F844        F  0.04547530  0.29167838  0.38215295    -0.21400
F845        F  0.05584300  0.31430257  0.41867377    -0.18600
F846        F  0.92832456  0.36614009  0.37910709    -0.18700
F847        F  0.95492313  0.40092673  0.37389954    -0.22500
F848        F  0.94146059  0.38889206  0.41470077    -0.24100
C849        C  0.79335746  0.48052435  0.34872758    -0.11000
C850        C  0.80821861  0.50374095  0.34963461     0.11600
C851        C  0.80290830  0.52437293  0.33141627    -0.02800
C852        C  0.78171484  0.52148496  0.31361171    -0.05500
C853        C  0.76656208  0.49842712  0.31296007    -0.16300
C854        C  0.77268214  0.47731065  0.33033444     0.02600
C855        C  0.83065746  0.50508434  0.36846508     0.12600
C856        C  0.81979752  0.54908922  0.33048137     0.63200
H857        H  0.77690769  0.53709835  0.29974390     0.12600
C858        C  0.75810352  0.45125385  0.32879537     0.55300
H859        H  0.79841559  0.46478428  0.36235544     0.08400
C860        C  0.82804899  0.51599341  0.39409740    -0.05400
C861        C  0.85107347  0.52002927  0.40926770    -0.06100
C862        C  0.87619621  0.51199265  0.40014517    -0.15700
C863        C  0.87795804  0.49770435  0.37583201    -0.01300
C864        C  0.85511083  0.49514620  0.36014576    -0.08800
C865        C  0.80098954  0.52228758  0.40562293     0.65400
H866        H  0.84955487  0.52985783  0.42827386     0.10900
C867        C  0.90343171  0.48481575  0.36624852     0.63800
H868        H  0.85624049  0.48582211  0.34082956     0.08200
F869        F  0.73177152  0.45474080  0.33524267    -0.19200
F870        F  0.76861619  0.43279280  0.34610851    -0.15500
F871        F  0.75991066  0.44123433  0.30333148    -0.18900
F872        F  0.84601688  0.54240414  0.32640578    -0.22300
F873        F  0.81765830  0.56272361  0.35410364    -0.23800
F874        F  0.81213925  0.56579637  0.31011825    -0.17800
F875        F  0.91545512  0.47136345  0.38692180    -0.20300
F876        F  0.92046377  0.50369657  0.35639964    -0.21400
F877        F  0.89868728  0.46679906  0.34618090    -0.18600
F878        F  0.80285141  0.53344746  0.43061817    -0.18700
F879        F  0.78661182  0.49926963  0.40777619    -0.22500
F880        F  0.78735909  0.53961403  0.38943483    -0.24100
C881        C  0.82757053  0.49654910  0.09638007    -0.11000
C882        C  0.82913107  0.49426309  0.12401620     0.11600
C883        C  0.85377562  0.48956212  0.13641095    -0.02800
C884        C  0.87620522  0.48643285  0.12036401    -0.05500
C885        C  0.87475444  0.48745394  0.09243887    -0.16300
C886        C  0.85003736  0.49345283  0.08016753     0.02600
C887        C  0.80439770  0.49505735  0.13958011     0.12600
C888        C  0.85624962  0.48711425  0.16644827     0.63200
H889        H  0.89498005  0.48199386  0.12971384     0.12600
C890        C  0.84693587  0.49654962  0.05029952     0.55300
H891        H  0.80832137  0.50005538  0.08757360     0.08400
C892        C  0.79334415  0.51894184  0.14881131    -0.05400
C893        C  0.77217527  0.51775836  0.16685165    -0.06100
C894        C  0.76160947  0.49355236  0.17497960    -0.15700
C895        C  0.77135482  0.46976773  0.16404647    -0.01300
C896        C  0.79274827  0.47097984  0.14635395    -0.08800
C897        C  0.80374762  0.54536363  0.13940588     0.65400
H898        H  0.76389281  0.53566761  0.17508850     0.10900
C899        C  0.75964376  0.44329457  0.17156894     0.63800
H900        H  0.80130864  0.45305320  0.13842862     0.08200
F901        F  0.86596388  0.51356510  0.04061724    -0.19200
F902        F  0.82241978  0.50682975  0.04358563    -0.15500
F903        F  0.84936824  0.47229733  0.03805761    -0.18900
F904        F  0.84211716  0.46556713  0.17526395    -0.22300
F905        F  0.84648660  0.50951518  0.17858691    -0.23800
F906        F  0.88229125  0.48390445  0.17440393    -0.17800
F907        F  0.77143219  0.42281558  0.15776958    -0.20300
F908        F  0.73289109  0.44311525  0.16585756    -0.21400
F909        F  0.76318056  0.43867977  0.19838478    -0.18600
F910        F  0.79102932  0.56613584  0.15184779    -0.18700
F911        F  0.79965644  0.54772251  0.11235945    -0.22500
F912        F  0.83052090  0.54742255  0.14457202    -0.24100
C913        C  0.09342482  0.57603660  0.51180773    -0.11000
C914        C  0.10426964  0.59518299  0.49491699     0.11600
C915        C  0.08822951  0.60652306  0.47483251    -0.02800
C916        C  0.06216185  0.59745579  0.47165164    -0.05500
C917        C  0.05122535  0.57791034  0.48813149    -0.16300
C918        C  0.06690012  0.56757462  0.50919081     0.02600
C919        C  0.13237081  0.60347829  0.49849766     0.12600
C920        C  0.09849066  0.62839070  0.45693367     0.63200
H921        H  0.05015208  0.60542380  0.45573670     0.12600
C922        C  0.05554195  0.54865150  0.52950800     0.55300
H923        H  0.10596846  0.56776841  0.52714729     0.08400
C924        C  0.13985116  0.62233057  0.51772852    -0.05400
C925        C  0.16540223  0.63319477  0.51638586    -0.06100
C926        C  0.18311988  0.62689812  0.49574615    -0.15700
C927        C  0.17627886  0.60650397  0.47771107    -0.01300
C928        C  0.15123561  0.59459326  0.48008641    -0.08800
C929        C  0.12053135  0.63189818  0.53873461     0.65400
H930        H  0.17104449  0.64850134  0.53022504     0.10900
C931        C  0.19344308  0.59729237  0.45478728     0.63800
H932        H  0.14548411  0.57961992  0.46588492     0.08200
F933        F  0.07261871  0.54483611  0.55068534    -0.19200
F934        F  0.05093883  0.52445280  0.51790163    -0.15500
F935        F  0.03206858  0.55867994  0.53946322    -0.18900
F936        F  0.11906358  0.61916005  0.44143248    -0.22300
F937        F  0.10735235  0.64917687  0.47220544    -0.23800
F938        F  0.07904191  0.63792699  0.44008174    -0.17800
F939        F  0.19898935  0.57078759  0.45800589    -0.20300
F940        F  0.21708890  0.61059112  0.45269685    -0.21400
F941        F  0.17977015  0.60068422  0.43122106    -0.18600
F942        F  0.13146821  0.65122767  0.55466477    -0.18700
F943        F  0.11327977  0.61111787  0.55485624    -0.22500
F944        F  0.09817591  0.64231269  0.52681350    -0.24100
C945        C  0.16265918  0.80120314  0.46990824    -0.11000
C946        C  0.14296751  0.80293090  0.48941125     0.11600
C947        C  0.14082981  0.78288390  0.50886324    -0.02800
C948        C  0.15999786  0.76263494  0.50925909    -0.05500
C949        C  0.18046552  0.76165748  0.49041635    -0.16300
C950        C  0.18147159  0.78079086  0.46996378     0.02600
C951        C  0.12477902  0.82596557  0.48825417     0.12600
C952        C  0.11834297  0.78283168  0.52884360     0.63200
H953        H  0.15932415  0.74747609  0.52437714     0.12600
C954        C  0.20223809  0.77958960  0.44819295     0.55300
H955        H  0.16339832  0.81637300  0.45479470     0.08400
C956        C  0.13245937  0.85105179  0.49757117    -0.05400
C957        C  0.11582246  0.87272934  0.49255223    -0.06100
C958        C  0.09195103  0.87034045  0.47826733    -0.15700
C959        C  0.08365482  0.84471912  0.47018536    -0.01300
C960        C  0.10053468  0.82308624  0.47513972    -0.08800
C961        C  0.15858414  0.85510563  0.51196313     0.65400
H962        H  0.12190498  0.89204447  0.49919119     0.10900
C963        C  0.05765380  0.83984828  0.45583273     0.63800
H964        H  0.09534112  0.80364602  0.46808342     0.08200
F965        F  0.22693826  0.78495686  0.45857819    -0.19200
F966        F  0.19718996  0.79770701  0.42825975    -0.15500
F967        F  0.20251625  0.75479372  0.43687016    -0.18900
F968        F  0.09445648  0.78063558  0.51566406    -0.22300
F969        F  0.11839672  0.80593870  0.54331211    -0.23800
F970        F  0.12038794  0.76198724  0.54646692    -0.17800
F971        F  0.05705524  0.85381058  0.43224593    -0.20300
F972        F  0.03674361  0.84749119  0.47180636    -0.21400
F973        F  0.05413539  0.81349468  0.44978423    -0.18600
F974        F  0.16099899  0.88050518  0.52161995    -0.18700
F975        F  0.17938723  0.85048640  0.49476902    -0.22500
F976        F  0.16052633  0.83801380  0.53324644    -0.24100
C977        C  0.98981411  0.90641136  0.06227591    -0.11000
C978        C  0.00203291  0.89676067  0.08532910     0.11600
C979        C  0.01772633  0.91379449  0.10093993    -0.02800
C980        C  0.02099557  0.93996796  0.09264996    -0.05500
C981        C  0.00889854  0.94999006  0.06953039    -0.16300
C982        C  0.99246505  0.93295705  0.05427122     0.02600
C983        C  0.99767725  0.86895911  0.09353800     0.12600
C984        C  0.03091194  0.90440233  0.12644107     0.63200
H985        H  0.03353164  0.95280428  0.10424911     0.12600
C986        C  0.97697004  0.94262255  0.03029421     0.55300
H987        H  0.97791394  0.89292536  0.05072351     0.08400
C988        C  0.97532032  0.86157816  0.10871734    -0.05400
C989        C  0.97545186  0.83689911  0.12142940    -0.06100
C990        C  0.99729408  0.81986589  0.11960042    -0.15700
C991        C  0.01854609  0.82623861  0.10249836    -0.01300
C992        C  0.01808562  0.85064295  0.08920713    -0.08800
C993        C  0.95217056  0.88030700  0.11262953     0.65400
H994        H  0.95938742  0.83149767  0.13455673     0.10900
C995        C  0.04230161  0.80807197  0.09977713     0.63800
H996        H  0.03470660  0.85654900  0.07703810     0.08200
F997        F  0.95948326  0.92378385  0.02107731    -0.19200
F998        F  0.99408991  0.94867317  0.00979487    -0.15500
F999        F  0.96237331  0.96470781  0.03708092    -0.18900
F1000       F  0.04931407  0.88502193  0.12078873    -0.01500
F1001       F  0.01210317  0.89442106  0.14358640    -0.23800
F1002       F  0.04389168  0.92458189  0.13945647    -0.17800
F1003       F  0.03425831  0.78385289  0.09031204    -0.20300
F1004       F  0.05433230  0.80470284  0.12422644    -0.21400
F1005       F  0.06092154  0.81804132  0.08234496    -0.18600
F1006       F  0.93237862  0.86914844  0.12789000    -0.18700
F1007       F  0.94141621  0.88690384  0.08826849    -0.22500
F1008       F  0.96059438  0.90296227  0.12521798    -0.24100
C1009       C  0.97421296  0.63783315  0.11219199    -0.11000
C1010       C  0.99541825  0.63225617  0.09517279     0.11600
C1011       C  0.01376071  0.65230980  0.08886316    -0.02800
C1012       C  0.01218316  0.67638729  0.10270041    -0.05500
C1013       C  0.99208120  0.68114858  0.12134529    -0.16300
C1014       C  0.97174001  0.66228976  0.12481621     0.02600
C1015       C  0.99731683  0.60510807  0.08442359     0.12600
C1016       C  0.03453206  0.64837084  0.06748612     0.63200
H1017       H  0.02723165  0.69126479  0.09990824     0.12600
C1018       C  0.94795105  0.66650702  0.14271769     0.55300
H1019       H  0.95963696  0.62266794  0.11600985     0.08400
C1020       C  0.00918109  0.58437597  0.09911664    -0.05400
C1021       C  0.00667295  0.55838950  0.08970241    -0.06100
C1022       C  0.99211689  0.55254003  0.06668932    -0.15700
C1023       C  0.98018424  0.57339370  0.05209623    -0.01300
C1024       C  0.98346008  0.59943251  0.06105678    -0.08800
C1025       C  0.02345787  0.58956602  0.12518814     0.65400
H1026       H  0.01520713  0.54221491  0.10085413     0.10900
C1027       C  0.96229306  0.56814244  0.02843811     0.63800
H1028       H  0.97402088  0.61559508  0.05064306     0.08200
F1029       F  0.95074978  0.65134369  0.16537148    -0.19200
F1030       F  0.92521871  0.65882454  0.12954371    -0.15500
F1031       F  0.94469955  0.69255189  0.15002042    -0.18900
F1032       F  0.02212218  0.64470959  0.04330729    -0.22300
F1033       F  0.04996676  0.62655776  0.07302775    -0.23800
F1034       F  0.05105905  0.66995152  0.06530185    -0.17800
F1035       F  0.94227827  0.55109255  0.03577466    -0.20300
F1036       F  0.97678121  0.55715619  0.00795943    -0.21400
F1037       F  0.95060899  0.59099445  0.01898196    -0.18600
F1038       F  0.03358468  0.56665725  0.13617813    -0.18700
F1039       F  0.00616399  0.60056561  0.14334378    -0.22500
F1040       F  0.04425472  0.60667824  0.12113591    -0.24100
C1041       C  0.97401471  0.65415156  0.28569674    -0.11000
C1042       C  0.99748663  0.64576795  0.29787464     0.11600
C1043       C  0.02214801  0.65510024  0.28867332    -0.02800
C1044       C  0.02230988  0.67415081  0.26845133    -0.05500
C1045       C  0.99871706  0.68339365  0.25703898    -0.16300
C1046       C  0.97407426  0.67304041  0.26542733     0.02600
C1047       C  0.99518046  0.62900879  0.32172521     0.12600
C1048       C  0.04803343  0.64463728  0.29983588     0.63200
H1049       H  0.04087740  0.68200064  0.26125406     0.12600
C1050       C  0.94730430  0.68152607  0.25457854     0.55300
H1051       H  0.95529662  0.64653791  0.29286274     0.08400
C1052       C  0.98954795  0.64016655  0.34675565    -0.05400
C1053       C  0.98590502  0.62329339  0.36843245    -0.06100
C1054       C  0.98719351  0.59566385  0.36594291    -0.15700
C1055       C  0.99313347  0.58454785  0.34062577    -0.01300
C1056       C  0.99707385  0.60165044  0.31892848    -0.08800
C1057       C  0.98700033  0.66983026  0.35048080     0.65400
H1058       H  0.98117265  0.63183140  0.38752755     0.10900
C1059       C  0.99521126  0.55502679  0.33608690     0.63800
H1060       H  0.00107740  0.59382608  0.29933309     0.08200
F1061       F  0.93264110  0.69265934  0.27489225    -0.19200
F1062       F  0.93401574  0.65966147  0.24518919    -0.15500
F1063       F  0.94885923  0.69959220  0.23413493    -0.18900
F1064       F  0.05045015  0.61821970  0.29368834    -0.22300
F1065       F  0.04868850  0.64757521  0.32711147    -0.23800
F1066       F  0.06963786  0.65771006  0.28934343    -0.17800
F1067       F  0.97062884  0.54354429  0.33922270    -0.20300
F1068       F  0.01297234  0.54407841  0.35389103    -0.21400
F1069       F  0.00401295  0.54912661  0.31073790    -0.18600
F1070       F  0.98235380  0.67652998  0.37671231    -0.18700
F1071       F  0.96615500  0.67942045  0.33552270    -0.22500
F1072       F  0.01004439  0.68212201  0.34256455    -0.24100
C1073       C  0.03488261  0.84442825  0.28906666    -0.11000
C1074       C  0.01163900  0.85745998  0.29681206     0.11600
C1075       C  0.98759207  0.85243474  0.28328732    -0.02800
C1076       C  0.98758939  0.83369772  0.26277092    -0.05500
C1077       C  0.01056699  0.81970031  0.25605787    -0.16300
C1078       C  0.03461403  0.82490807  0.26936431     0.02600
C1079       C  0.01293347  0.87481909  0.32040499     0.12600
C1080       C  0.96202638  0.86635060  0.29079793     0.63200
H1081       H  0.96950672  0.82931114  0.25212939     0.12600
C1082       C  0.05960948  0.80945102  0.26317989     0.55300
H1083       H  0.05310430  0.84903843  0.29936109     0.08400
C1084       C  0.01575112  0.86429972  0.34624894    -0.05400
C1085       C  0.01806390  0.88170257  0.36763006    -0.06100
C1086       C  0.01772314  0.90923656  0.36427445    -0.15700
C1087       C  0.01369191  0.91975752  0.33832211    -0.01300
C1088       C  0.01189956  0.90215838  0.31677376    -0.08800
C1089       C  0.01708336  0.83479134  0.35137849     0.65400
H1090       H  0.02118445  0.87358218  0.38725156     0.10900
C1091       C  0.01111071  0.94911845  0.33295511     0.63800
H1092       H  0.01014863  0.90961817  0.29670084     0.08200
F1093       F  0.05546039  0.78298595  0.26802811    -0.19200
F1094       F  0.08074189  0.81749797  0.27865090    -0.15500
F1095       F  0.06637716  0.81284592  0.23681428    -0.18900
F1096       F  0.96414071  0.89296359  0.28554752    -0.22300
F1097       F  0.95686517  0.86275734  0.31752039    -0.23800
F1098       F  0.94064707  0.85681681  0.27659311    -0.17800
F1099       F  0.03523535  0.96130557  0.33678817    -0.20300
F1100       F  0.99237947  0.96003350  0.34972271    -0.21400
F1101       F  0.00311529  0.95417769  0.30712899    -0.18600
F1102       F  0.01560252  0.82896798  0.37821139    -0.18700
F1103       F  0.04073278  0.82479344  0.34194329    -0.22500
F1104       F  0.99629523  0.82225252  0.33886239    -0.24100
C1105       C  0.10753531  0.97848791  0.86123156    -0.11000
C1106       C  0.09562134  0.00240643  0.86846260     0.11600
C1107       C  0.09559482  0.02363198  0.85010464    -0.02800
C1108       C  0.10911634  0.02063496  0.82575667    -0.05500
C1109       C  0.12229548  0.99714780  0.81922392    -0.16300
C1110       C  0.12023061  0.97521863  0.83657264     0.02600
C1111       C  0.08693491  0.00586067  0.89660437     0.12600
C1112       C  0.08210316  0.04962048  0.85658662     0.63200
H1113       H  0.11082149  0.03713473  0.81223812     0.12600
C1114       C  0.13193741  0.94835320  0.83049517     0.55300
H1115       H  0.10756786  0.96235724  0.87534828     0.08400
C1116       C  0.06199227  0.99770303  0.90620652    -0.05400
C1117       C  0.05524435  0.00311495  0.93288906    -0.06100
C1118       C  0.07299298  0.01537157  0.95063842    -0.15700
C1119       C  0.09894963  0.02172758  0.94114031    -0.01300
C1120       C  0.10508151  0.01703203  0.91424407    -0.08800
C1121       C  0.04292676  0.98270305  0.88856398     0.65400
H1122       H  0.03591114  0.99749628  0.94011314     0.10900
C1123       C  0.12052422  0.03339046  0.95869193     0.63800
H1124       H  0.12434405  0.02222876  0.90645299     0.08200
F1125       F  0.11306498  0.92921357  0.83511136    -0.19200
F1126       F  0.15335037  0.94382440  0.84698659    -0.15500
F1127       F  0.14010769  0.94585248  0.80442695    -0.18900
F1128       F  0.09386452  0.06105088  0.87848456    -0.22300
F1129       F  0.05565589  0.04542309  0.86198381    -0.23800
F1130       F  0.08365595  0.06724950  0.83566643    -0.17800
F1131       F  0.14405528  0.03693853  0.94508108    -0.20300
F1132       F  0.12578405  0.01658722  0.97970035    -0.21400
F1133       F  0.11268823  0.05777698  0.96810746    -0.18600
F1134       F  0.01923506  0.97761246  0.90133834    -0.18700
F1135       F  0.05415468  0.95889023  0.88143020    -0.22500
F1136       F  0.03740651  0.99696787  0.86585892    -0.24100
C1137       C  0.10215341  0.96840647  0.64050036    -0.11000
C1138       C  0.09409587  0.99226089  0.62905912     0.11600
C1139       C  0.09562997  0.01577269  0.64401637    -0.02800
C1140       C  0.10836401  0.01504111  0.66888500    -0.05500
C1141       C  0.11914570  0.99156572  0.67899475    -0.16300
C1142       C  0.11474629  0.96757100  0.66531950     0.02600
C1143       C  0.08598973  0.99206585  0.60072527     0.12600
C1144       C  0.08450196  0.04149415  0.63339429     0.63200
H1145       H  0.11162795  0.03309043  0.67982677     0.12600
C1146       C  0.12384227  0.94080093  0.67521620     0.55300
H1147       H  0.09988669  0.95036424  0.62922692     0.08400
C1148       C  0.10493229  0.99142019  0.58005802    -0.05400
C1149       C  0.09607422  0.98952041  0.55369884    -0.06100
C1150       C  0.06900917  0.98811230  0.54721925    -0.15700
C1151       C  0.04997138  0.98995717  0.56812286    -0.01300
C1152       C  0.05901856  0.99156648  0.59456354    -0.08800
C1153       C  0.13445613  0.99242147  0.58582559     0.65400
H1154       H  0.11050793  0.98855999  0.53785766     0.10900
C1155       C  0.02028699  0.98979865  0.56312616     0.63800
H1156       H  0.04507614  0.99204996  0.61087392     0.08200
F1157       F  0.14201615  0.93039121  0.65755014    -0.19200
F1158       F  0.10226051  0.92416760  0.67656235    -0.15500
F1159       F  0.13534038  0.94158348  0.70008588    -0.18900
F1160       F  0.05745783  0.03917950  0.63006665    -0.22300
F1161       F  0.09595287  0.04753029  0.60922609    -0.23800
F1162       F  0.08911507  0.06222545  0.65059206    -0.17800
F1163       F  0.00592181  0.99151539  0.58647600    -0.20300
F1164       F  0.01305882  0.96669147  0.55058780    -0.21400
F1165       F  0.01334279  0.01119155  0.54756336    -0.18600
F1166       F  0.14935028  0.99320638  0.56276822    -0.18700
F1167       F  0.14207187  0.97036133  0.60001693    -0.22500
F1168       F  0.14025605  0.01469244  0.60042588    -0.24100
C1169       C  0.84861986  0.09216100  0.98864122    -0.11000
C1170       C  0.86219090  0.09298670  0.01296210     0.11600
C1171       C  0.85099632  0.10700207  0.03459198    -0.02800
C1172       C  0.82728749  0.12106578  0.03054758    -0.05500
C1173       C  0.81506450  0.12218592  0.00555900    -0.16300
C1174       C  0.82513711  0.10665056  0.98451590     0.02600
C1175       C  0.89020750  0.08382752  0.01339949     0.12600
C1176       C  0.86486361  0.10860228  0.06132498     0.63200
H1177       H  0.81924622  0.13320091  0.04629372     0.12600
C1178       C  0.81196592  0.10665913  0.95746411     0.55300
H1179       H  0.85764727  0.08159693  0.97229646     0.08400
C1180       C  0.89782795  0.05735137  0.01791401    -0.05400
C1181       C  0.92508178  0.05118904  0.01907419    -0.06100
C1182       C  0.94464411  0.07048686  0.01509703    -0.15700
C1183       C  0.93673252  0.09639883  0.00794592    -0.01300
C1184       C  0.90961704  0.10261375  0.00759201    -0.08800
C1185       C  0.87737265  0.03580191  0.02141568     0.65400
H1186       H  0.93130687  0.03133490  0.02390340     0.10900
C1187       C  0.95657644  0.11742399  0.00008171     0.63800
H1188       H  0.90325705  0.12251962  0.00308133     0.08200
F1189       F  0.82422781  0.08934874  0.94012298    -0.19200
F1190       F  0.81298063  0.13160806  0.94652557    -0.15500
F1191       F  0.78583124  0.09913513  0.96001261    -0.18900
F1192       F  0.88864606  0.12167832  0.05865639    -0.22300
F1193       F  0.86965029  0.08362157  0.07105703    -0.23800
F1194       F  0.84974646  0.12195766  0.07991051    -0.17800
F1195       F  0.94441455  0.13831098  0.98721863    -0.20300
F1196       F  0.97520430  0.10695155  0.98290668    -0.21400
F1197       F  0.96907880  0.12714381  0.02242449    -0.18600
F1198       F  0.88906281  0.01125834  0.02419230    -0.18700
F1199       F  0.86096978  0.03499797  0.99946726    -0.22500
F1200       F  0.86225854  0.04058038  0.04373938    -0.24100
C1201       C  0.85575454  0.29323675  0.98883448    -0.11000
C1202       C  0.86754585  0.29639983  0.01382794     0.11600
C1203       C  0.86064179  0.27913047  0.03482857    -0.02800
C1204       C  0.84158061  0.25951188  0.03004529    -0.05500
C1205       C  0.82914620  0.25701357  0.00523927    -0.16300
C1206       C  0.83691625  0.27356875  0.98397772     0.02600
C1207       C  0.88344535  0.32056725  0.01827331     0.12600
C1208       C  0.87278224  0.28186321  0.06230357     0.63200
H1209       H  0.83533288  0.24661382  0.04597519     0.12600
C1210       C  0.82570147  0.27195783  0.95605767     0.55300
H1211       H  0.86076632  0.30688588  0.97305542     0.08400
C1212       C  0.91009337  0.32315291  0.01006945    -0.05400
C1213       C  0.92290503  0.34746681  0.01397190    -0.06100
C1214       C  0.90972637  0.36931961  0.02499648    -0.15700
C1215       C  0.88270894  0.36667175  0.03274934    -0.01300
C1216       C  0.87018439  0.34228944  0.02904279    -0.08800
C1217       C  0.92488594  0.30046309  0.99716532     0.65400
H1218       H  0.94335421  0.34971550  0.00801776     0.10900
C1219       C  0.86689329  0.38901227  0.04528072     0.63800
H1220       H  0.84954469  0.33992020  0.03430571     0.08200
F1221       F  0.84631599  0.26940406  0.93816320    -0.19200
F1222       F  0.81199956  0.29491451  0.95047948    -0.15500
F1223       F  0.80884622  0.25093119  0.95231247    -0.18900
F1224       F  0.86647455  0.30611955  0.07301436    -0.22300
F1225       F  0.89997072  0.27954470  0.06067280    -0.23800
F1226       F  0.86372334  0.26267190  0.07956245    -0.17800
F1227       F  0.86271990  0.40879062  0.02684737    -0.20300
F1228       F  0.88035051  0.39894928  0.06697778    -0.21400
F1229       F  0.84230640  0.38073993  0.05404799    -0.18600
F1230       F  0.95035734  0.30748721  0.99001115    -0.18700
F1231       F  0.91182528  0.29247145  0.97446534    -0.22500
F1232       F  0.92651062  0.27953015  0.01461406    -0.24100
C1233       C  0.39527818  0.00227034  0.07801578    -0.11000
C1234       C  0.41462691  0.00417135  0.09778579     0.11600
C1235       C  0.44153870  0.00589952  0.09048448    -0.02800
C1236       C  0.44798111  0.00822156  0.06332071    -0.05500
C1237       C  0.42845053  0.00813997  0.04325889    -0.16300
C1238       C  0.40153491  0.00392205  0.05082333     0.02600
C1239       C  0.40544792  0.00489075  0.12586569     0.12600
C1240       C  0.46328394  0.00479295  0.11126770     0.63200
H1241       H  0.46848652  0.01059823  0.05766199     0.12600
C1242       C  0.37912101  0.00121349  0.03082547     0.55300
H1243       H  0.37487093  0.00025049  0.08425885     0.08400
C1244       C  0.39563222  0.02842345  0.13744163    -0.05400
C1245       C  0.38251351  0.02699043  0.16206985    -0.06100
C1246       C  0.37859467  0.00284924  0.17500686    -0.15700
C1247       C  0.38988585  0.97962683  0.16428705    -0.01300
C1248       C  0.40327753  0.98105951  0.13978390    -0.08800
C1249       C  0.39749516  0.05466613  0.12304465     0.65400
H1250       H  0.37344336  0.04443344  0.17049412     0.10900
C1251       C  0.38659915  0.95333147  0.17818119     0.63800
H1252       H  0.41084874  0.96332763  0.13054461     0.08200
F1253       F  0.37357305  0.02540201  0.01946842    -0.19200
F1254       F  0.35609707  0.99221142  0.04261508    -0.15500
F1255       F  0.38603439  0.98331967  0.01130860    -0.18900
F1256       F  0.46326424  0.98027083  0.12319530    -0.22300
F1257       F  0.45922894  0.02378144  0.13048677    -0.23800
F1258       F  0.48802081  0.00889353  0.10024431    -0.17800
F1259       F  0.39975044  0.93330079  0.16498112    -0.20300
F1260       F  0.36009572  0.94680323  0.17951896    -0.21400
F1261       F  0.39672044  0.95490562  0.20364122    -0.18600
F1262       F  0.38926121  0.07535760  0.13893430    -0.18700
F1263       F  0.38171649  0.05425252  0.10062573    -0.22500
F1264       F  0.42333126  0.05948247  0.11556030    -0.24100
C1265       C  0.29485908  0.97670472  0.84014924    -0.11000
C1266       C  0.30382949  0.00161828  0.84782653     0.11600
C1267       C  0.29044809  0.02447482  0.83877711    -0.02800
C1268       C  0.26868267  0.02147035  0.82166249    -0.05500
C1269       C  0.25981581  0.99651573  0.81378257    -0.16300
C1270       C  0.27263521  0.97363544  0.82372524     0.02600
C1271       C  0.32833724  0.00317190  0.86394829     0.12600
C1272       C  0.29941308  0.05188236  0.84673415     0.63200
H1273       H  0.25861266  0.03865437  0.81380843     0.12600
C1274       C  0.26420385  0.94565276  0.81753596     0.55300
H1275       H  0.30543816  0.95938990  0.84704873     0.08400
C1276       C  0.32828661  0.00042296  0.89184169    -0.05400
C1277       C  0.35214846  0.00416008  0.90573615    -0.06100
C1278       C  0.37620791  0.00936089  0.89257112    -0.15700
C1279       C  0.37641702  0.00950137  0.86415966    -0.01300
C1280       C  0.35224296  0.00684852  0.85054107    -0.08800
C1281       C  0.30322232  0.99314455  0.90673223     0.65400
H1282       H  0.35209320  0.00298286  0.92719478     0.10900
C1283       C  0.40155229  0.01254448  0.84781969     0.63800
H1284       H  0.35163229  0.00781913  0.82906056     0.08200
F1285       F  0.26018498  0.93222650  0.84109662    -0.19200
F1286       F  0.28413014  0.93317242  0.80349040    -0.15500
F1287       F  0.24112466  0.94422834  0.80291528    -0.18900
F1288       F  0.32433731  0.05669749  0.83659692    -0.22300
F1289       F  0.30024745  0.05397595  0.87408153    -0.23800
F1290       F  0.28242837  0.07118419  0.83727678    -0.17800
F1291       F  0.41902742  0.99239878  0.85388390    -0.20300
F1292       F  0.41310434  0.03664371  0.85297984    -0.21400
F1293       F  0.39665132  0.01132264  0.82078078    -0.18600
F1294       F  0.30721014  0.99246463  0.93392272    -0.18700
F1295       F  0.29492636  0.96846810  0.89878772    -0.22500
F1296       F  0.28340244  0.01121919  0.90147906    -0.24100
C1297       C  0.36147253  0.14370340  0.99148557    -0.11000
C1298       C  0.37056556  0.16832827  0.98325140     0.11600
C1299       C  0.39657415  0.17092832  0.97335481    -0.02800
C1300       C  0.41185565  0.14797887  0.96951905    -0.05500
C1301       C  0.40222317  0.12277643  0.97615742    -0.16300
C1302       C  0.37689817  0.12080169  0.98859486     0.02600
C1303       C  0.35210303  0.19096403  0.98537783     0.12600
C1304       C  0.40817875  0.19788235  0.96746106     0.63200
H1305       H  0.43137620  0.14962913  0.96086089     0.12600
C1306       C  0.36585606  0.09500781  0.99917267     0.55300
H1307       H  0.34173054  0.14255945  0.99977411     0.08400
C1308       C  0.33539253  0.19837447  0.96406803    -0.05400
C1309       C  0.31854728  0.22019935  0.96737852    -0.06100
C1310       C  0.31561107  0.23258515  0.99213612    -0.15700
C1311       C  0.33073430  0.22355329  0.01414284    -0.01300
C1312       C  0.34957901  0.20357333  0.00998946    -0.08800
C1313       C  0.33385367  0.18208240  0.93880197     0.65400
H1314       H  0.30633992  0.22693001  0.95102604     0.10900
C1315       C  0.32761722  0.23365483  0.04237617     0.63800
H1316       H  0.36172313  0.19692656  0.02646116     0.08200
F1317       F  0.35869427  0.07885803  0.97829317    -0.19200
F1318       F  0.34359034  0.09895477  0.01471189    -0.15500
F1319       F  0.38459558  0.08253634  0.01483084    -0.18900
F1320       F  0.40818065  0.21282616  0.99039897    -0.22300
F1321       F  0.39335483  0.21077141  0.94838276    -0.23800
F1322       F  0.43395629  0.19612104  0.95833946    -0.17800
F1323       F  0.32315131  0.21258134  0.05920434    -0.20300
F1324       F  0.30682973  0.25110582  0.04547917    -0.21400
F1325       F  0.35069780  0.24604933  0.05005945    -0.18600
F1326       F  0.31661970  0.19305305  0.92047056    -0.18700
F1327       F  0.32484898  0.15713621  0.94496175    -0.22500
F1328       F  0.35840914  0.17994586  0.92698609    -0.24100
C1329       C  0.64504612  0.11127318  0.96862711    -0.11000
C1330       C  0.62794386  0.11003422  0.99056280     0.11600
C1331       C  0.63596707  0.12113565  0.01508536    -0.02800
C1332       C  0.66014702  0.13484671  0.01627225    -0.05500
C1333       C  0.67658000  0.13723197  0.99394978    -0.16300
C1334       C  0.66929263  0.12486045  0.96986744     0.02600
C1335       C  0.60112364  0.09834431  0.98685932     0.12600
C1336       C  0.61895341  0.11859974  0.03978987     0.63200
H1337       H  0.66624327  0.14432422  0.03452287     0.12600
C1338       C  0.68688501  0.12660773  0.94551761     0.55300
H1339       H  0.63881249  0.10214495  0.95024228     0.08400
C1340       C  0.58030919  0.11277185  0.97493185    -0.05400
C1341       C  0.55535840  0.10088936  0.97241255    -0.06100
C1342       C  0.55021963  0.07494850  0.98112187    -0.15700
C1343       C  0.57129808  0.06057528  0.99335450    -0.01300
C1344       C  0.59641869  0.07259242  0.99568823    -0.08800
C1345       C  0.58441901  0.14067073  0.96472618     0.65400
H1346       H  0.53965400  0.11201022  0.96302272     0.10900
C1347       C  0.56774046  0.03288748  0.00418910     0.63800
H1348       H  0.61281307  0.06194267  0.00449118     0.08200
F1349       F  0.67593084  0.11382571  0.92390366    -0.19200
F1350       F  0.71112286  0.11509520  0.95091875    -0.15500
F1351       F  0.69070892  0.15268119  0.93862779    -0.18900
F1352       F  0.61692338  0.09236539  0.04679380    -0.22300
F1353       F  0.59392618  0.12862644  0.03504259    -0.23800
F1354       F  0.62963979  0.13204525  0.06113022    -0.17800
F1355       F  0.59041007  0.02363267  0.01657435    -0.20300
F1356       F  0.56184151  0.01575368  0.98371359    -0.21400
F1357       F  0.54757941  0.03271898  0.02276121    -0.18600
F1358       F  0.56120375  0.15169809  0.95514071    -0.18700
F1359       F  0.60260392  0.14053658  0.94424234    -0.22500
F1360       F  0.59362686  0.15655391  0.98497885    -0.24100
C1361       C  0.48807749  0.09936193  0.81542358    -0.11000
C1362       C  0.48669638  0.12667573  0.81864995     0.11600
C1363       C  0.48401083  0.13747969  0.84435942    -0.02800
C1364       C  0.48181476  0.12027789  0.86607298    -0.05500
C1365       C  0.48276634  0.09266797  0.86311103    -0.16300
C1366       C  0.48715379  0.08202595  0.83724015     0.02600
C1367       C  0.48870491  0.14369330  0.79480796     0.12600
C1368       C  0.48310770  0.16708947  0.84886332     0.63200
H1369       H  0.47876718  0.12855928  0.88562421     0.12600
C1370       C  0.49160050  0.05282306  0.83222643     0.55300
H1371       H  0.48999507  0.09172480  0.79544837     0.08400
C1372       C  0.51322076  0.14857051  0.78213692    -0.05400
C1373       C  0.51403994  0.16722812  0.76153889    -0.06100
C1374       C  0.49125581  0.18088320  0.75346210    -0.15700
C1375       C  0.46653400  0.17520104  0.76541311    -0.01300
C1376       C  0.46572799  0.15635567  0.78576378    -0.08800
C1377       C  0.53840817  0.13447785  0.79060602     0.65400
H1378       H  0.53259701  0.17174571  0.75182324     0.10900
C1379       C  0.44055519  0.18848464  0.75800896     0.63800
H1380       H  0.44700273  0.15199763  0.79528956     0.08200
F1381       F  0.49909649  0.04787796  0.80625069    -0.19200
F1382       F  0.46858683  0.03897880  0.83699875    -0.15500
F1383       F  0.51164673  0.04359894  0.84852398    -0.18900
F1384       F  0.45971997  0.17727136  0.83892638    -0.22300
F1385       F  0.50419293  0.17906792  0.83625547    -0.23800
F1386       F  0.48450880  0.17338199  0.87557153    -0.17800
F1387       F  0.42267375  0.16952291  0.75001960    -0.20300
F1388       F  0.44280488  0.20667065  0.73773142    -0.21400
F1389       F  0.43050921  0.20129035  0.78006177    -0.18600
F1390       F  0.56037643  0.14398696  0.77733869    -0.18700
F1391       F  0.53634120  0.10791548  0.78509553    -0.22500
F1392       F  0.54255086  0.13781854  0.81753776    -0.24100
C1393       C  0.43586975  0.00027872  0.40116825    -0.11000
C1394       C  0.41071678  0.99147058  0.39367396     0.11600
C1395       C  0.39420116  0.97951552  0.41284048    -0.02800
C1396       C  0.40351105  0.97681916  0.43906662    -0.05500
C1397       C  0.42879526  0.98557649  0.44699191    -0.16300
C1398       C  0.44529176  0.99779245  0.42751098     0.02600
C1399       C  0.40177339  0.99512383  0.36565587     0.12600
C1400       C  0.36676672  0.96956792  0.40554301     0.63200
H1401       H  0.39094565  0.96736350  0.45358025     0.12600
C1402       C  0.47261749  0.00843915  0.43404112     0.55300
H1403       H  0.44811828  0.00917570  0.38600285     0.08400
C1404       C  0.38955822  0.01876437  0.35702898    -0.05400
C1405       C  0.37730460  0.01931503  0.33189893    -0.06100
C1406       C  0.37688179  0.99704821  0.31539488    -0.15700
C1407       C  0.39087428  0.97408934  0.32315500    -0.01300
C1408       C  0.40346514  0.97365943  0.34816110    -0.08800
C1409       C  0.38874863  0.04296885  0.37469802     0.65400
H1410       H  0.36648943  0.03665495  0.32554962     0.10900
C1411       C  0.39135588  0.94982492  0.30559473     0.63800
H1412       H  0.41342077  0.95598227  0.35495673     0.08200
F1413       F  0.48368066  0.02175764  0.41279445    -0.19200
F1414       F  0.48945526  0.98788788  0.44052930    -0.15500
F1415       F  0.47096608  0.02594095  0.45502223    -0.18900
F1416       F  0.36880447  0.94976778  0.38684060    -0.22300
F1417       F  0.35168415  0.98987373  0.39518741    -0.23800
F1418       F  0.35347815  0.95953123  0.42732144    -0.17800
F1419       F  0.40567346  0.92945895  0.31698943    -0.20300
F1420       F  0.40291232  0.95591676  0.28149739    -0.21400
F1421       F  0.36585288  0.94104002  0.30123216    -0.18600
F1422       F  0.37538720  0.06366306  0.36275919    -0.18700
F1423       F  0.41425237  0.05113413  0.38007211    -0.22500
F1424       F  0.37612830  0.03724336  0.39834442    -0.24100
C1425       C  0.34819599  0.78901622  0.53446214    -0.11000
C1426       C  0.35148537  0.80744486  0.51401311     0.11600
C1427       C  0.33701917  0.80478497  0.49008392    -0.02800
C1428       C  0.31931740  0.78364437  0.48764302    -0.05500
C1429       C  0.31539128  0.76573789  0.50848036    -0.16300
C1430       C  0.32968190  0.76859120  0.53252186     0.02600
C1431       C  0.36940664  0.82998557  0.51871625     0.12600
C1432       C  0.33993673  0.82442669  0.46749682     0.63200
H1433       H  0.30808730  0.78102580  0.46951331     0.12600
C1434       C  0.32583379  0.75139346  0.55692059     0.55300
H1435       H  0.35952139  0.79125945  0.55261482     0.08400
C1436       C  0.36115223  0.85214663  0.53356668    -0.05400
C1437       C  0.37875095  0.87328662  0.53642711    -0.06100
C1438       C  0.40423854  0.87283049  0.52521060    -0.15700
C1439       C  0.41260640  0.85038931  0.51067719    -0.01300
C1440       C  0.39498363  0.82912996  0.50794965    -0.08800
C1441       C  0.33389179  0.85342889  0.54634096     0.65400
H1442       H  0.37274363  0.89043674  0.54771178     0.10900
C1443       C  0.43944269  0.84924300  0.49719392     0.63800
H1444       H  0.40086342  0.81170489  0.49703289     0.08200
F1445       F  0.31999252  0.76726091  0.57846939    -0.19200
F1446       F  0.34901721  0.73780600  0.56209157    -0.15500
F1447       F  0.30559750  0.73335316  0.55440075    -0.18900
F1448       F  0.36579836  0.82467661  0.45861362    -0.22300
F1449       F  0.33312830  0.84935975  0.47615955    -0.23800
F1450       F  0.32383975  0.81822814  0.44616133    -0.17800
F1451       F  0.44201781  0.82717052  0.48127854    -0.20300
F1452       F  0.45925820  0.84839155  0.51610938    -0.21400
F1453       F  0.44275945  0.87121258  0.48129287    -0.18600
F1454       F  0.32935255  0.87742263  0.55856482    -0.18700
F1455       F  0.33164288  0.83397278  0.56540037    -0.22500
F1456       F  0.31446774  0.84986753  0.52735684    -0.24100
C1457       C  0.34913062  0.98206873  0.63990286    -0.11000
C1458       C  0.32572979  0.98816857  0.62633759     0.11600
C1459       C  0.32656670  0.99341020  0.59879892    -0.02800
C1460       C  0.35085995  0.99077104  0.58535546    -0.05500
C1461       C  0.37441226  0.98368191  0.59861226    -0.16300
C1462       C  0.37360453  0.97972498  0.62670781     0.02600
C1463       C  0.30081281  0.98953818  0.64197350     0.12600
C1464       C  0.30194707  0.00205489  0.58379397     0.63200
H1465       H  0.35157260  0.99429598  0.56416854     0.12600
C1466       C  0.39796417  0.97249137  0.64300344     0.55300
H1467       H  0.34787558  0.97888689  0.66113462     0.08400
C1468       C  0.28607784  0.96670444  0.64842251    -0.05400
C1469       C  0.26388741  0.96926903  0.66514373    -0.06100
C1470       C  0.25667726  0.99364838  0.67607314    -0.15700
C1471       C  0.27106040  0.01652569  0.66917373    -0.01300
C1472       C  0.29300002  0.01404737  0.65214597    -0.08800
C1473       C  0.29450114  0.93961488  0.63876521     0.65400
H1474       H  0.25273072  0.95204192  0.67097764     0.10900
C1475       C  0.26332376  0.04333344  0.68000961     0.63800
H1476       H  0.30470221  0.03116188  0.64711003     0.08200
F1477       F  0.40898287  0.94935477  0.63355805    -0.19200
F1478       F  0.39198944  0.96865239  0.66955972    -0.15500
F1479       F  0.41633082  0.99258133  0.64164762    -0.18900
F1480       F  0.29318586  0.02592632  0.59364845    -0.22300
F1481       F  0.28211877  0.98361822  0.58671639    -0.23800
F1482       F  0.30679422  0.00509464  0.55691120    -0.17800
F1483       F  0.27995951  0.06298157  0.67093568    -0.20300
F1484       F  0.26446910  0.04313635  0.70743694    -0.21400
F1485       F  0.23783797  0.04943916  0.67208515    -0.18600
F1486       F  0.27635496  0.92044962  0.64572513    -0.18700
F1487       F  0.31861116  0.93295620  0.64990321    -0.22500
F1488       F  0.29689203  0.93949931  0.61143515    -0.24100
C1489       C  0.49652552  0.10013353  0.55506651    -0.11000
C1490       C  0.50180651  0.10594959  0.58176408     0.11600
C1491       C  0.50327863  0.08514300  0.60045763    -0.02800
C1492       C  0.50010790  0.05905450  0.59155091    -0.05500
C1493       C  0.49386350  0.05301131  0.56496964    -0.16300
C1494       C  0.49203873  0.07406941  0.54628798     0.02600
C1495       C  0.50234516  0.13407709  0.59032824     0.12600
C1496       C  0.50608121  0.09054604  0.63005341     0.63200
H1497       H  0.50122434  0.04310057  0.60577547     0.12600
C1498       C  0.48400906  0.06953177  0.51756956     0.55300
H1499       H  0.49491691  0.11645914  0.54131245     0.08400
C1500       C  0.52611442  0.14840441  0.59374829    -0.05400
C1501       C  0.52506881  0.17285380  0.60714898    -0.06100
C1502       C  0.50087143  0.18385484  0.61549876    -0.15700
C1503       C  0.47694546  0.17124048  0.60818189    -0.01300
C1504       C  0.47815073  0.14620968  0.59637386    -0.08800
C1505       C  0.55221088  0.13797840  0.58305830     0.65400
H1506       H  0.54318616  0.18297202  0.61228891     0.10900
C1507       C  0.44971802  0.18250739  0.61391604     0.63800
H1508       H  0.45994712  0.13559597  0.59261176     0.08200
F1509       F  0.48103827  0.09294372  0.50376897    -0.19200
F1510       F  0.46005107  0.05645142  0.51662459    -0.15500
F1511       F  0.50319093  0.05479642  0.50477502    -0.18900
F1512       F  0.48403520  0.10408486  0.63892232    -0.22300
F1513       F  0.52831821  0.10544756  0.63508874    -0.23800
F1514       F  0.50823120  0.06752649  0.64464708    -0.17800
F1515       F  0.43474965  0.18202521  0.59091352    -0.20300
F1516       F  0.45044173  0.20825305  0.62273118    -0.21400
F1517       F  0.43741053  0.16723390  0.63296583    -0.18600
F1518       F  0.57275918  0.15532351  0.58775266    -0.18700
F1519       F  0.55010766  0.13438670  0.55592514    -0.22500
F1520       F  0.55859898  0.11416505  0.59470520    -0.24100
C1521       C  0.36146117  0.61454880  0.52911398    -0.11000
C1522       C  0.37479510  0.60672388  0.50597969     0.11600
C1523       C  0.36209726  0.60942587  0.48102105    -0.02800
C1524       C  0.33678479  0.62115350  0.48000676    -0.05500
C1525       C  0.32438418  0.63092465  0.50293805    -0.16300
C1526       C  0.33673239  0.62738973  0.52799007     0.02600
C1527       C  0.40249655  0.59679348  0.50847151     0.12600
C1528       C  0.37574236  0.60100615  0.45550995     0.63200
H1529       H  0.32719239  0.62445255  0.46105428     0.12600
C1530       C  0.32470803  0.63870479  0.55317729     0.55300
H1531       H  0.37140247  0.61193294  0.54799465     0.08400
C1532       C  0.42413308  0.61399811  0.51226372    -0.05400
C1533       C  0.44967523  0.60320104  0.51495757    -0.06100
C1534       C  0.45457521  0.57586690  0.51357199    -0.15700
C1535       C  0.43273974  0.55873404  0.50873060    -0.01300
C1536       C  0.40705513  0.56962823  0.50697516    -0.08800
C1537       C  0.42032696  0.64370615  0.51337326     0.65400
H1538       H  0.46615310  0.61633994  0.51826267     0.10900
C1539       C  0.43599780  0.52916644  0.50527142     0.63800
H1540       H  0.39008006  0.55697619  0.50420481     0.08200
F1541       F  0.32476104  0.66589606  0.55190220    -0.19200
F1542       F  0.33872910  0.63117965  0.57556936    -0.15500
F1543       F  0.29898990  0.63006278  0.55611333    -0.18900
F1544       F  0.38059289  0.57422645  0.45603169    -0.22300
F1545       F  0.39948670  0.61417502  0.45277538    -0.23800
F1546       F  0.36043710  0.60642886  0.43336049    -0.17800
F1547       F  0.44661398  0.51819455  0.52807085    -0.20300
F1548       F  0.45236889  0.52409525  0.48385127    -0.21400
F1549       F  0.41210349  0.51682190  0.50036195    -0.18600
F1550       F  0.44419625  0.65687156  0.51535591    -0.18700
F1551       F  0.40517578  0.65040826  0.53518886    -0.22500
F1552       F  0.40775263  0.65238635  0.49059799    -0.24100
C1553       C  0.60323454  0.51790655  0.34992688    -0.11000
C1554       C  0.60210493  0.49567922  0.36641155     0.11600
C1555       C  0.61209726  0.47125672  0.35735911    -0.02800
C1556       C  0.62620652  0.47067122  0.33331271    -0.05500
C1557       C  0.62945376  0.49350628  0.31799650    -0.16300
C1558       C  0.61671847  0.51717476  0.32554844     0.02600
C1559       C  0.59326718  0.49937936  0.39417597     0.12600
C1560       C  0.60790821  0.44615752  0.37317555     0.63200
H1561       H  0.63565837  0.45265825  0.32672907     0.12600
C1562       C  0.61816988  0.54160727  0.30823313     0.55300
H1563       H  0.59472725  0.53618931  0.35703284     0.08400
C1564       C  0.61128423  0.50735056  0.41400942    -0.05400
C1565       C  0.60181046  0.51144839  0.43981025    -0.06100
C1566       C  0.57485620  0.50855051  0.44651866    -0.15700
C1567       C  0.55687531  0.49990169  0.42646015    -0.01300
C1568       C  0.56659683  0.49558160  0.40053610    -0.08800
C1569       C  0.64037552  0.51220566  0.40780655     0.65400
H1570       H  0.61567438  0.51777276  0.45484737     0.10900
C1571       C  0.52767889  0.49517478  0.43184880     0.63800
H1572       H  0.55339238  0.48949550  0.38477036     0.08200
F1573       F  0.64420197  0.54926881  0.30505108    -0.19200
F1574       F  0.60430891  0.56249702  0.31916570    -0.15500
F1575       F  0.60739501  0.53622220  0.28359058    -0.18900
F1576       F  0.58108028  0.44141103  0.37542254    -0.22300
F1577       F  0.61861488  0.44849490  0.39831983    -0.23800
F1578       F  0.61951165  0.42461408  0.36097745    -0.17800
F1579       F  0.51541877  0.51855098  0.43881972    -0.20300
F1580       F  0.52490331  0.47695386  0.45208496    -0.21400
F1581       F  0.51467399  0.48539567  0.40976545    -0.18600
F1582       F  0.65457304  0.51926854  0.43020225    -0.18700
F1583       F  0.64263287  0.53237113  0.38951680    -0.22500
F1584       F  0.65187419  0.48971855  0.39749148    -0.24100
C1585       C  0.51531126  0.40436631  0.56052110    -0.11000
C1586       C  0.50755225  0.40010544  0.58685432     0.11600
C1587       C  0.50321898  0.42182672  0.60391525    -0.02800
C1588       C  0.50741281  0.44733357  0.59399449    -0.05500
C1589       C  0.51584816  0.45180214  0.56778408    -0.16300
C1590       C  0.51945953  0.42992105  0.55047250     0.02600
C1591       C  0.50645984  0.37264440  0.59678493     0.12600
C1592       C  0.49473232  0.41808587  0.63265200     0.63200
H1593       H  0.50461890  0.46413036  0.60693433     0.12600
C1594       C  0.52848005  0.43315626  0.52186191     0.55300
H1595       H  0.51864202  0.38731213  0.54805476     0.08400
C1596       C  0.48357955  0.35683703  0.59448889    -0.05400
C1597       C  0.48322437  0.33223597  0.60747659    -0.06100
C1598       C  0.50526091  0.32302088  0.62180217    -0.15700
C1599       C  0.52895095  0.33793524  0.62188676    -0.01300
C1600       C  0.52898781  0.36265638  0.60951203    -0.08800
C1601       C  0.45983742  0.36597609  0.57841032     0.65400
H1602       H  0.46539258  0.32047112  0.60750568     0.10900
C1603       C  0.55414039  0.32956037  0.63605571     0.63800
H1604       H  0.54660919  0.37475250  0.61052252     0.08200
F1605       F  0.50918984  0.44626240  0.50748822    -0.19200
F1606       F  0.53293174  0.40913098  0.50964126    -0.15500
F1607       F  0.55185344  0.44722969  0.52097149    -0.18900
F1608       F  0.51398358  0.40436060  0.64644578    -0.22300
F1609       F  0.47130994  0.40418465  0.63372457    -0.23800
F1610       F  0.49074460  0.44191468  0.64540058    -0.17800
F1611       F  0.57531985  0.33177614  0.61881336    -0.20300
F1612       F  0.55350121  0.30385781  0.64503306    -0.21400
F1613       F  0.55832313  0.34599584  0.65752566    -0.18600
F1614       F  0.43898963  0.34846323  0.58021280    -0.18700
F1615       F  0.46697057  0.36812335  0.55200191    -0.22500
F1616       F  0.45104901  0.39022594  0.58724418    -0.24100
C1617       C  0.63643682  0.35794765  0.01350514    -0.11000
C1618       C  0.63337421  0.33434764  0.99949093     0.11600
C1619       C  0.61086553  0.33065066  0.98322754    -0.02800
C1620       C  0.59322129  0.35182846  0.97960784    -0.05500
C1621       C  0.59740018  0.37630505  0.99185763    -0.16300
C1622       C  0.61872456  0.37913944  0.01010745     0.02600
C1623       C  0.65456331  0.31412838  0.00135107     0.12600
C1624       C  0.60573157  0.30447342  0.96962768     0.63200
H1625       H  0.57659016  0.34973607  0.96621651     0.12600
C1626       C  0.62289773  0.40419843  0.02609245     0.55300
H1627       H  0.65346560  0.35996377  0.02640803     0.08400
C1628       C  0.67640363  0.31407622  0.98376416    -0.05400
C1629       C  0.69428865  0.29279541  0.98469942    -0.06100
C1630       C  0.69185474  0.27263783  0.00367210    -0.15700
C1631       C  0.67144169  0.27430161  0.02302804    -0.01300
C1632       C  0.65262877  0.29464764  0.02092879    -0.08800
C1633       C  0.68089691  0.33660896  0.96441709     0.65400
H1634       H  0.71037102  0.29164181  0.97053610     0.10900
C1635       C  0.66857310  0.25557505  0.04636084     0.63800
H1636       H  0.63631054  0.29548715  0.03488542     0.08200
F1637       F  0.63246404  0.42396669  0.00987523    -0.19200
F1638       F  0.64097118  0.40043201  0.04643181    -0.15500
F1639       F  0.59925615  0.41219601  0.03741203    -0.18900
F1640       F  0.60287662  0.28499432  0.98858922    -0.22300
F1641       F  0.62661761  0.29798050  0.95315781    -0.23800
F1642       F  0.58293137  0.30515329  0.95439472    -0.17800
F1643       F  0.66679279  0.27000878  0.06959177    -0.20300
F1644       F  0.68963541  0.23838982  0.04910705    -0.21400
F1645       F  0.64563408  0.24112073  0.04333585    -0.18600
F1646       F  0.70329521  0.33266498  0.94910169    -0.18700
F1647       F  0.68412503  0.35980425  0.97838643    -0.22500
F1648       F  0.65951039  0.33927374  0.94751027    -0.24100
C1649       C  0.48751151  0.34715709  0.79366391    -0.11000
C1650       C  0.51383202  0.35204021  0.80112329     0.11600
C1651       C  0.53470455  0.33903389  0.78758770    -0.02800
C1652       C  0.52843330  0.32238245  0.76619299    -0.05500
C1653       C  0.50215770  0.31747791  0.75879243    -0.16300
C1654       C  0.48124155  0.32981874  0.77277406     0.02600
C1655       C  0.51851932  0.36886417  0.82486862     0.12600
C1656       C  0.56339646  0.34214488  0.79601530     0.63200
H1657       H  0.54400785  0.31231550  0.75542696     0.12600
C1658       C  0.45254157  0.32417017  0.76604923     0.55300
H1659       H  0.47186186  0.35667844  0.80481503     0.08400
C1660       C  0.51874167  0.39665415  0.82359859    -0.05400
C1661       C  0.52193753  0.41107643  0.84729794    -0.06100
C1662       C  0.52464341  0.39872998  0.87229008    -0.15700
C1663       C  0.52438818  0.37054426  0.87330320    -0.01300
C1664       C  0.52101561  0.35635744  0.84949770    -0.08800
C1665       C  0.51530939  0.41099502  0.79732263     0.65400
H1666       H  0.52212908  0.43235329  0.84635470     0.10900
C1667       C  0.52775010  0.35495032  0.89895425     0.63800
H1668       H  0.52017927  0.33505566  0.84979500     0.08200
F1669       F  0.43531295  0.33779614  0.78245731    -0.19200
F1670       F  0.44758871  0.29756593  0.76893097    -0.15500
F1671       F  0.44730093  0.33152153  0.74014862    -0.18900
F1672       F  0.56652706  0.33408373  0.82204285    -0.22300
F1673       F  0.57090791  0.36816351  0.79383031    -0.23800
F1674       F  0.58029728  0.32718281  0.78045662    -0.17800
F1675       F  0.50695497  0.36030063  0.91598789    -0.20300
F1676       F  0.55151215  0.36136819  0.91093361    -0.21400
F1677       F  0.52801491  0.32803311  0.89457029    -0.18600
F1678       F  0.51624030  0.43805632  0.80040457    -0.18700
F1679       F  0.49112828  0.40469071  0.78624654    -0.22500
F1680       F  0.53517716  0.40376286  0.77994162    -0.24100
C1681       C  0.59109489  0.50403189  0.15013087    -0.11000
C1682       C  0.59311189  0.48195241  0.13351020     0.11600
C1683       C  0.61052338  0.46104408  0.14039112    -0.02800
C1684       C  0.62522452  0.46303331  0.16399569    -0.05500
C1685       C  0.62463708  0.48592334  0.17951348    -0.16300
C1686       C  0.60725029  0.50677107  0.17272519     0.02600
C1687       C  0.58206301  0.48434979  0.10634194     0.12600
C1688       C  0.61513166  0.43764393  0.12204864     0.63200
H1689       H  0.63902149  0.44760186  0.16949667     0.12600
C1690       C  0.60729305  0.53248691  0.18808848     0.55300
H1691       H  0.57831295  0.52007445  0.14397793     0.08400
C1692       C  0.55685717  0.47484086  0.09895467    -0.05400
C1693       C  0.54970145  0.47568276  0.07186005    -0.06100
C1694       C  0.56671580  0.48634591  0.05248939    -0.15700
C1695       C  0.59070482  0.49828941  0.06062004    -0.01300
C1696       C  0.59798359  0.49690290  0.08745908    -0.08800
C1697       C  0.53750320  0.46463007  0.11958949     0.65400
H1698       H  0.53109796  0.46725160  0.06549862     0.10900
C1699       C  0.60889131  0.51222858  0.04123146     0.63800
H1700       H  0.61683076  0.50482703  0.09383979     0.08200
F1701       F  0.58982096  0.55066988  0.17738555    -0.19200
F1702       F  0.63234272  0.54336712  0.18756002    -0.15500
F1703       F  0.60002403  0.52801709  0.21414343    -0.18900
F1704       F  0.62368466  0.44621493  0.09746443    -0.22300
F1705       F  0.59204704  0.42358228  0.11885430    -0.23800
F1706       F  0.63415562  0.42061489  0.13200828    -0.17800
F1707       F  0.62660616  0.52845035  0.05428943    -0.20300
F1708       F  0.59426273  0.52776312  0.02402647    -0.21400
F1709       F  0.62320553  0.49386744  0.02690403    -0.18600
F1710       F  0.51427279  0.45585208  0.10806800    -0.18700
F1711       F  0.53126621  0.48464707  0.13710459    -0.22500
F1712       F  0.54841348  0.44397435  0.13370684    -0.24100
C1713       C  0.41591235  0.39667536  0.99915745    -0.11000
C1714       C  0.39517834  0.41341070  0.99164400     0.11600
C1715       C  0.40067894  0.43981265  0.98467924    -0.02800
C1716       C  0.42741594  0.44753193  0.98208155    -0.05500
C1717       C  0.44842168  0.42985945  0.98718944    -0.16300
C1718       C  0.44247187  0.40445264  0.99743756     0.02600
C1719       C  0.36827311  0.40170463  0.99084003     0.12600
C1720       C  0.37850174  0.45975117  0.98097024     0.63200
H1721       H  0.43205839  0.46725786  0.97543193     0.12600
C1722       C  0.46378791  0.38522939  0.00641175     0.55300
H1723       H  0.41107923  0.37684314  0.00540735     0.08400
C1724       C  0.35907347  0.38814685  0.96799174    -0.05400
C1725       C  0.33583489  0.37307133  0.96998688    -0.06100
C1726       C  0.32252094  0.37001078  0.99420598    -0.15700
C1727       C  0.33187399  0.38320961  0.01709991    -0.01300
C1728       C  0.35443860  0.39929243  0.01489013    -0.08800
C1729       C  0.37435549  0.38844637  0.94192751     0.65400
H1730       H  0.32848100  0.36241186  0.95290748     0.10900
C1731       C  0.31872781  0.37926825  0.04391195     0.63800
H1732       H  0.36235994  0.40901713  0.03228305     0.08200
F1733       F  0.47579760  0.37396229  0.98450735    -0.19200
F1734       F  0.45338078  0.36514940  0.02176127    -0.15500
F1735       F  0.48251110  0.39809304  0.02165172    -0.18900
F1736       F  0.36427877  0.46190755  0.00431959    -0.22300
F1737       F  0.36155017  0.45196113  0.96099786    -0.23800
F1738       F  0.38813306  0.48442337  0.97450594    -0.17800
F1739       F  0.31807541  0.35274545  0.05014079    -0.20300
F1740       F  0.29315659  0.38895920  0.04313386    -0.21400
F1741       F  0.33216800  0.39211978  0.06401973    -0.18600
F1742       F  0.36337259  0.37160099  0.92338496    -0.18700
F1743       F  0.40023952  0.38056202  0.94600448    -0.22500
F1744       F  0.37427840  0.41346460  0.93123831    -0.24100
C1745       C  0.85659031  0.89923852  0.51575934    -0.11000
C1746       C  0.87124134  0.89946055  0.49215986     0.11600
C1747       C  0.86048126  0.88812506  0.46887863    -0.02800
C1748       C  0.83512606  0.87686206  0.47011063    -0.05500
C1749       C  0.82097656  0.87534266  0.49408323    -0.16300
C1750       C  0.83162720  0.88717577  0.51726480     0.02600
C1751       C  0.89846178  0.91034331  0.49258017     0.12600
C1752       C  0.87641575  0.88645597  0.44332348     0.63200
H1753       H  0.82700354  0.86711304  0.45281964     0.12600
C1754       C  0.81837040  0.88676699  0.54428090     0.55300
H1755       H  0.86519557  0.90778771  0.53348699     0.08400
C1756       C  0.90355089  0.93732341  0.48818709    -0.05400
C1757       C  0.92993798  0.94550026  0.48486294    -0.06100
C1758       C  0.95118195  0.92756646  0.48628078    -0.15700
C1759       C  0.94602897  0.90095615  0.49354696    -0.01300
C1760       C  0.91958911  0.89284730  0.49636429    -0.08800
C1761       C  0.88109983  0.95719887  0.48687640     0.65400
H1762       H  0.93405026  0.96587840  0.48014732     0.10900
C1763       C  0.96803986  0.88106233  0.49860457     0.63800
H1764       H  0.91509154  0.87242867  0.50059474     0.08200
F1765       F  0.81541631  0.91234734  0.55323648    -0.19200
F1766       F  0.83424244  0.87309724  0.56196449    -0.15500
F1767       F  0.79370304  0.87518386  0.54409172    -0.18900
F1768       F  0.89822599  0.87039171  0.44717232    -0.22300
F1769       F  0.88488789  0.91120004  0.43578813    -0.23800
F1770       F  0.86170040  0.87610057  0.42265114    -0.17800
F1771       F  0.95863596  0.85860115  0.51096632    -0.20300
F1772       F  0.98706435  0.89196480  0.51498518    -0.21400
F1773       F  0.97948738  0.87348682  0.47486801    -0.18600
F1774       F  0.89020380  0.98240245  0.48195420    -0.18700
F1775       F  0.86776148  0.95745994  0.51084130    -0.22500
F1776       F  0.86361444  0.95054052  0.46688379    -0.24100
C1777       C  0.64163852  0.89412907  0.47158884    -0.11000
C1778       C  0.63058347  0.90102586  0.49614513     0.11600
C1779       C  0.64531936  0.89712847  0.51979019    -0.02800
C1780       C  0.67055320  0.88548310  0.51805073    -0.05500
C1781       C  0.68069020  0.87670587  0.49368805    -0.16300
C1782       C  0.66658532  0.88189025  0.46993218     0.02600
C1783       C  0.60254789  0.90978949  0.49683892     0.12600
C1784       C  0.63367131  0.90351027  0.54685540     0.63200
H1785       H  0.68154121  0.88087825  0.53594307     0.12600
C1786       C  0.67741021  0.87345210  0.44312456     0.55300
H1787       H  0.62992536  0.89719754  0.45383369     0.08400
C1788       C  0.59508836  0.93639630  0.49377400    -0.05400
C1789       C  0.56852937  0.94350550  0.49847223    -0.06100
C1790       C  0.54911141  0.92463037  0.50494137    -0.15700
C1791       C  0.55628110  0.89741581  0.50421727    -0.01300
C1792       C  0.58308608  0.89065757  0.50075979    -0.08800
C1793       C  0.61517579  0.95699122  0.48549844     0.65400
H1794       H  0.56298899  0.96408858  0.49774220     0.10900
C1795       C  0.53620145  0.87529715  0.50679064     0.63800
H1796       H  0.58928419  0.87023802  0.50176326     0.08200
F1797       F  0.70209047  0.88442696  0.43922617    -0.19200
F1798       F  0.66120718  0.88153121  0.42247957    -0.15500
F1799       F  0.67957850  0.84633540  0.44206917    -0.18900
F1800       F  0.61220083  0.88742085  0.55171547    -0.22300
F1801       F  0.62549320  0.92947684  0.54767541    -0.23800
F1802       F  0.65188526  0.89970247  0.56705301    -0.17800
F1803       F  0.54693955  0.85117783  0.49973207    -0.20300
F1804       F  0.51491599  0.87998234  0.49011975    -0.21400
F1805       F  0.52756473  0.87336708  0.53277163    -0.18600
F1806       F  0.60378009  0.98166993  0.48290077    -0.18700
F1807       F  0.62600651  0.95015262  0.46124229    -0.22500
F1808       F  0.63520069  0.95857925  0.50411291    -0.24100
C1809       C  0.63624350  0.65041142  0.48435905    -0.11000
C1810       C  0.62795244  0.67449373  0.49496747     0.11600
C1811       C  0.60333473  0.67629178  0.50806340    -0.02800
C1812       C  0.58923176  0.65299585  0.51309919    -0.05500
C1813       C  0.59870853  0.62821123  0.50479734    -0.16300
C1814       C  0.62197614  0.62708309  0.48876787     0.02600
C1815       C  0.64642940  0.69704412  0.49365178     0.12600
C1816       C  0.59205349  0.70276511  0.51640515     0.63200
H1817       H  0.57103042  0.65400628  0.52437219     0.12600
C1818       C  0.63226442  0.60168674  0.47646877     0.55300
H1819       H  0.65482716  0.64986356  0.47365179     0.08400
C1820       C  0.66553935  0.70120858  0.51378742    -0.05400
C1821       C  0.68201976  0.72331562  0.51193669    -0.06100
C1822       C  0.68124105  0.74005666  0.48980926    -0.15700
C1823       C  0.66377183  0.73453132  0.46854091    -0.01300
C1824       C  0.64594264  0.71343253  0.47122486    -0.08800
C1825       C  0.66908792  0.68191849  0.53664270     0.65400
H1826       H  0.69636942  0.72731469  0.52738982     0.10900
C1827       C  0.66501312  0.74991975  0.44272449     0.63800
H1828       H  0.63191979  0.70910461  0.45557018     0.08200
F1829       F  0.64347778  0.58592028  0.49587397    -0.19200
F1830       F  0.65145166  0.60648670  0.45745637    -0.15500
F1831       F  0.61182614  0.58837124  0.46413432    -0.18900
F1832       F  0.58861029  0.71839493  0.49416623    -0.22300
F1833       F  0.60908556  0.71525699  0.53373947    -0.23800
F1834       F  0.56778104  0.70020379  0.52885808    -0.17800
F1835       F  0.69029881  0.74841005  0.43232799    -0.20300
F1836       F  0.65863222  0.77600785  0.44714412    -0.21400
F1837       F  0.64765489  0.74007120  0.42395189    -0.18600
F1838       F  0.68998773  0.68887296  0.55294852    -0.18700
F1839       F  0.67429724  0.65702279  0.52682566    -0.22500
F1840       F  0.64640282  0.68107476  0.55190342    -0.24100
C1841       C  0.84457965  0.70423975  0.49839820    -0.11000
C1842       C  0.85238704  0.69839085  0.47238328     0.11600
C1843       C  0.84272911  0.71362637  0.45090726    -0.02800
C1844       C  0.82558001  0.73467695  0.45647317    -0.05500
C1845       C  0.81745886  0.74021618  0.48250727    -0.16300
C1846       C  0.82726873  0.72504946  0.50398699     0.02600
C1847       C  0.87011165  0.67556259  0.46855997     0.12600
C1848       C  0.84993795  0.70736777  0.42232071     0.63200
H1849       H  0.81754273  0.74650215  0.44045309     0.12600
C1850       C  0.82057144  0.72981952  0.53300078     0.55300
H1851       H  0.85196261  0.69215877  0.51457721     0.08400
C1852       C  0.89729424  0.67670672  0.47491207    -0.05400
C1853       C  0.91239261  0.65351216  0.47327435    -0.06100
C1854       C  0.90117608  0.62940823  0.46540852    -0.15700
C1855       C  0.87396282  0.62873614  0.45784086    -0.01300
C1856       C  0.85886793  0.65188043  0.46019043    -0.08800
C1857       C  0.91016464  0.70228745  0.48364255     0.65400
H1858       H  0.93312049  0.65401630  0.47866608     0.10900
C1859       C  0.86062976  0.60419769  0.44685647     0.63800
H1860       H  0.83787235  0.65165535  0.45587003     0.08200
F1861       F  0.84340144  0.73686174  0.54634987    -0.19200
F1862       F  0.81087596  0.70685464  0.54405712    -0.15500
F1863       F  0.80194308  0.74938879  0.53688846    -0.18900
F1864       F  0.83914003  0.68344853  0.41513615    -0.22300
F1865       F  0.87711525  0.70613309  0.41952436    -0.23800
F1866       F  0.84045249  0.72631369  0.40492754    -0.17800
F1867       F  0.83550412  0.60955620  0.43721892    -0.20300
F1868       F  0.85816971  0.58549763  0.46666527    -0.21400
F1869       F  0.87531620  0.59402720  0.42604584    -0.18600
F1870       F  0.93734301  0.69975741  0.48594102    -0.18700
F1871       F  0.90030206  0.70985965  0.50806885    -0.22500
F1872       F  0.90498437  0.72190493  0.46528668    -0.24100
C1873       C  0.54114416  0.86295455  0.88637869    -0.11000
C1874       C  0.52081946  0.86748793  0.90477212     0.11600
C1875       C  0.50398958  0.84636257  0.91202903    -0.02800
C1876       C  0.50562320  0.82255346  0.89773454    -0.05500
C1877       C  0.52423586  0.81909028  0.87735633    -0.16300
C1878       C  0.54391248  0.83858279  0.87346392     0.02600
C1879       C  0.51432641  0.89521572  0.91208937     0.12600
C1880       C  0.48366943  0.84938295  0.93401200     0.63200
H1881       H  0.49108503  0.80726961  0.90099989     0.12600
C1882       C  0.56738674  0.83501363  0.85504857     0.55300
H1883       H  0.55422252  0.87896020  0.88101900     0.08400
C1884       C  0.52898022  0.91032146  0.93055673    -0.05400
C1885       C  0.52029100  0.93616230  0.93652386    -0.06100
C1886       C  0.49822779  0.94755637  0.92377145    -0.15700
C1887       C  0.48412777  0.93243395  0.90462516    -0.01300
C1888       C  0.49264264  0.90665476  0.89915122    -0.08800
C1889       C  0.55384303  0.89940171  0.94345813     0.65400
H1890       H  0.53106440  0.94792511  0.95079506     0.10900
C1891       C  0.45982155  0.94291607  0.89014634     0.63800
H1892       H  0.48231168  0.89493778  0.88449281     0.08200
F1893       F  0.59039475  0.84052205  0.86883152    -0.19200
F1894       F  0.56520068  0.85225931  0.83389753    -0.15500
F1895       F  0.56955728  0.80964808  0.84531564    -0.18900
F1896       F  0.46376596  0.86640684  0.92618376    -0.22300
F1897       F  0.49571024  0.85924407  0.95655164    -0.23800
F1898       F  0.47227695  0.82549387  0.94055737    -0.17800
F1899       F  0.44700111  0.92338776  0.87597620    -0.20300
F1900       F  0.46726854  0.96223039  0.87230960    -0.21400
F1901       F  0.44188080  0.95317147  0.90815635    -0.18600
F1902       F  0.56401671  0.91650554  0.96222845    -0.18700
F1903       F  0.57303711  0.89534194  0.92434358    -0.22500
F1904       F  0.54841692  0.87576310  0.95589167    -0.24100
C1905       C  0.50538326  0.58323451  0.89164337    -0.11000
C1906       C  0.51277118  0.60336191  0.90908145     0.11600
C1907       C  0.51832991  0.59728276  0.93591306    -0.02800
C1908       C  0.51906721  0.57060372  0.94372441    -0.05500
C1909       C  0.51365785  0.55008743  0.92569881    -0.16300
C1910       C  0.50528618  0.55664950  0.89952099     0.02600
C1911       C  0.51442652  0.63057572  0.89831634     0.12600
C1912       C  0.52333490  0.61894262  0.95605491     0.63200
H1913       H  0.52467951  0.56558051  0.96385570     0.12600
C1914       C  0.49567306  0.53600489  0.87997440     0.55300
H1915       H  0.50022744  0.58855308  0.87144765     0.08400
C1916       C  0.53729266  0.63968261  0.88493727    -0.05400
C1917       C  0.53664646  0.66473149  0.87299929    -0.06100
C1918       C  0.51359501  0.68023985  0.87291539    -0.15700
C1919       C  0.49083370  0.67125533  0.88668485    -0.01300
C1920       C  0.49180749  0.64657604  0.89935463    -0.08800
C1921       C  0.56161922  0.62232085  0.88169581     0.65400
H1922       H  0.55355518  0.67164314  0.86180150     0.10900
C1923       C  0.46468897  0.68600236  0.88770362     0.63800
H1924       H  0.47429671  0.63920242  0.90929347     0.08200
F1925       F  0.51684229  0.52165734  0.87026674    -0.19200
F1926       F  0.48278562  0.54734823  0.85853755    -0.15500
F1927       F  0.47798769  0.51928920  0.89238481    -0.18900
F1928       F  0.50127488  0.63502634  0.95774829    -0.22300
F1929       F  0.54479622  0.63394122  0.94842685    -0.23800
F1930       F  0.52842717  0.60888400  0.98110378    -0.17800
F1931       F  0.44543144  0.67112418  0.87530004    -0.20300
F1932       F  0.46549493  0.71038371  0.87558979    -0.21400
F1933       F  0.45751105  0.68971719  0.91394428    -0.18600
F1934       F  0.58221674  0.63564417  0.86959739    -0.18700
F1935       F  0.55540950  0.60079467  0.86614001    -0.22500
F1936       F  0.57039914  0.61362164  0.90617001    -0.24100
C1937       C  0.48113011  0.84913413  0.70908059    -0.11000
C1938       C  0.50442098  0.86009025  0.69889270     0.11600
C1939       C  0.52896447  0.85413851  0.71109996    -0.02800
C1940       C  0.52947807  0.83560841  0.73192520    -0.05500
C1941       C  0.50628341  0.82340429  0.74100970    -0.16300
C1942       C  0.48151716  0.83083623  0.72998230     0.02600
C1943       C  0.50219750  0.87671168  0.67465181     0.12600
C1944       C  0.55435892  0.86737337  0.70228836     0.63200
H1945       H  0.54808925  0.83010611  0.74108288     0.12600
C1946       C  0.45495797  0.82011931  0.73892861     0.55300
H1947       H  0.46236994  0.85444440  0.70003394     0.08400
C1948       C  0.49902921  0.86534682  0.64924767    -0.05400
C1949       C  0.49427954  0.88196592  0.62740416    -0.06100
C1950       C  0.49200761  0.90957180  0.63001338    -0.15700
C1951       C  0.49628182  0.92093237  0.65559869    -0.01300
C1952       C  0.50118584  0.90411935  0.67742826    -0.08800
C1953       C  0.49988508  0.83564003  0.64535577     0.65400
H1954       H  0.49129111  0.87312178  0.60810731     0.10900
C1955       C  0.49545599  0.95045874  0.66038496     0.63800
H1956       H  0.50346866  0.91218515  0.69718966     0.08200
F1957       F  0.44312028  0.80714993  0.71793275    -0.19200
F1958       F  0.43887704  0.84089896  0.74649540    -0.15500
F1959       F  0.45668535  0.80284189  0.76004379    -0.18900
F1960       F  0.55268565  0.89408235  0.70727761    -0.22300
F1961       F  0.55836672  0.86347048  0.67542780    -0.23800
F1962       F  0.57618141  0.85756158  0.71572638    -0.17800
F1963       F  0.47008897  0.95988566  0.65619629    -0.20300
F1964       F  0.51296979  0.96295881  0.64348487    -0.21400
F1965       F  0.50257093  0.95686861  0.68612938    -0.18600
F1966       F  0.49869244  0.82875525  0.61878868    -0.18700
F1967       F  0.47864039  0.82412216  0.65808664    -0.22500
F1968       F  0.52310581  0.82545895  0.65570738    -0.24100
C1969       C  0.54384563  0.65436631  0.71086928    -0.11000
C1970       C  0.52183206  0.64998290  0.69456178     0.11600
C1971       C  0.49782022  0.66346542  0.69966448    -0.02800
C1972       C  0.49700237  0.68176663  0.72057649    -0.05500
C1973       C  0.51925711  0.68674002  0.73642282    -0.16300
C1974       C  0.54318456  0.67280248  0.73162379     0.02600
C1975       C  0.52513834  0.63251384  0.67118817     0.12600
C1976       C  0.47315303  0.65836878  0.68326904     0.63200
H1977       H  0.47888255  0.69238901  0.72485782     0.12600
C1978       C  0.56874680  0.67683309  0.74695807     0.55300
H1979       H  0.56206761  0.64377321  0.70679570     0.08400
C1980       C  0.53714265  0.64167401  0.64758711    -0.05400
C1981       C  0.53967384  0.62427767  0.62607779    -0.06100
C1982       C  0.53063877  0.59811585  0.62733264    -0.15700
C1983       C  0.51838608  0.58904622  0.65106271    -0.01300
C1984       C  0.51606427  0.60651391  0.67270073    -0.08800
C1985       C  0.54723874  0.66975770  0.64514954     0.65400
H1986       H  0.54918958  0.63101427  0.60806464     0.10900
C1987       C  0.50722114  0.56142557  0.65356547     0.63800
H1988       H  0.50712783  0.60003081  0.69111148     0.08200
F1989       F  0.58829412  0.68490910  0.72956070    -0.19200
F1990       F  0.57642565  0.65320288  0.75831587    -0.15500
F1991       F  0.56677532  0.69538834  0.76688701    -0.18900
F1992       F  0.46452707  0.63295942  0.68776356    -0.22300
F1993       F  0.47852233  0.66147014  0.65653452    -0.23800
F1994       F  0.45282005  0.67550033  0.68981957    -0.17800
F1995       F  0.52765499  0.54325628  0.65400948    -0.20300
F1996       F  0.49060320  0.55620772  0.63238148    -0.21400
F1997       F  0.49270131  0.55833177  0.67665802    -0.18600
F1998       F  0.55612573  0.67527154  0.61975332    -0.18700
F1999       F  0.56804715  0.67359219  0.66252122    -0.22500
F2000       F  0.52721682  0.68741243  0.65107164    -0.24100
C2001       C  0.90046766  0.46410189  0.85483978    -0.11000
C2002       C  0.90383631  0.48863672  0.86702553     0.11600
C2003       C  0.89680490  0.51189165  0.85328158    -0.02800
C2004       C  0.88275404  0.50954134  0.82930291    -0.05500
C2005       C  0.87725316  0.48479281  0.81822227    -0.16300
C2006       C  0.88775238  0.46175896  0.83021443     0.02600
C2007       C  0.91309242  0.48896470  0.89488299     0.12600
C2008       C  0.90464147  0.53882645  0.86364278     0.63200
H2009       H  0.87529636  0.52695742  0.81933826     0.12600
C2010       C  0.88553179  0.43434445  0.81850560     0.55300
H2011       H  0.90705271  0.44649197  0.86513437     0.08400
C2012       C  0.89497288  0.48803372  0.91623868    -0.05400
C2013       C  0.90495085  0.48663599  0.94222006    -0.06100
C2014       C  0.93226906  0.48458504  0.94750023    -0.15700
C2015       C  0.95038632  0.48507683  0.92579580    -0.01300
C2016       C  0.94030049  0.48770876  0.89982793    -0.08800
C2017       C  0.86521013  0.48704834  0.91153054     0.65400
H2018       H  0.89120960  0.48612767  0.95869146     0.10900
C2019       C  0.98005971  0.48170109  0.92950392     0.63800
H2020       H  0.95354284  0.48798672  0.88292879     0.08200
F2021       F  0.87099364  0.41859399  0.83546524    -0.19200
F2022       F  0.91063744  0.42370873  0.81589267    -0.15500
F2023       F  0.87367866  0.43400576  0.79378252    -0.18900
F2024       F  0.93193047  0.54038396  0.86459912    -0.22300
F2025       F  0.89469305  0.54294002  0.88885039    -0.23800
F2026       F  0.89540497  0.55884595  0.84739167    -0.17800
F2027       F  0.99331091  0.48042792  0.90547642    -0.20300
F2028       F  0.98526994  0.45855909  0.94308189    -0.21400
F2029       F  0.99008282  0.50285160  0.94350092    -0.18600
F2030       F  0.85115709  0.48634143  0.93511203    -0.18700
F2031       F  0.85897074  0.46469276  0.89723050    -0.22500
F2032       F  0.85688027  0.50891062  0.89746678    -0.24100
C2033       C  0.90002585  0.47542291  0.63798862    -0.11000
C2034       C  0.90510942  0.50125134  0.62947893     0.11600
C2035       C  0.89916364  0.52258796  0.64665910    -0.02800
C2036       C  0.88590937  0.51745295  0.67072084    -0.05500
C2037       C  0.87916939  0.49174792  0.67830678    -0.16300
C2038       C  0.88781482  0.47025240  0.66260446     0.02600
C2039       C  0.91365053  0.50558668  0.60142620     0.12600
C2040       C  0.90587507  0.55075051  0.63915987     0.63200
H2041       H  0.87930931  0.53361791  0.68310125     0.12600
C2042       C  0.88381495  0.44206474  0.67179122     0.55300
H2043       H  0.90474086  0.45933560  0.62470226     0.08400
C2044       C  0.93988527  0.50153362  0.59259253    -0.05400
C2045       C  0.94614524  0.50705305  0.56585783    -0.06100
C2046       C  0.92702695  0.51594528  0.54741251    -0.15700
C2047       C  0.90025723  0.51881260  0.55632129    -0.01300
C2048       C  0.89431796  0.51353822  0.58316923    -0.08800
C2049       C  0.96116686  0.49134415  0.61128748     0.65400
H2050       H  0.96633089  0.50439602  0.55922828     0.10900
C2051       C  0.87763621  0.52719325  0.53814292     0.63800
H2052       H  0.87426294  0.51575465  0.59042354     0.08200
F2053       F  0.89498334  0.42418087  0.65432183    -0.19200
F2054       F  0.85720083  0.43635907  0.67394201    -0.15500
F2055       F  0.89563615  0.43869244  0.69633387    -0.18900
F2056       F  0.89027691  0.55886891  0.61813636    -0.22300
F2057       F  0.93219576  0.55242687  0.63191216    -0.23800
F2058       F  0.90174395  0.56789691  0.66012739    -0.17800
F2059       F  0.85347943  0.52731308  0.55113433    -0.20300
F2060       F  0.87560319  0.50983123  0.51709497    -0.21400
F2061       F  0.88192256  0.55243472  0.52879020    -0.18600
F2062       F  0.98566397  0.49000264  0.59905947    -0.18700
F2063       F  0.95473012  0.46632425  0.61985471    -0.22500
F2064       F  0.96333480  0.50776731  0.63303808    -0.24100
C2065       C  0.70356875  0.46471407  0.84013959    -0.11000
C2066       C  0.69756579  0.48843069  0.85309701     0.11600
C2067       C  0.71342313  0.51091882  0.84846853    -0.02800
C2068       C  0.73461852  0.50893582  0.83036042    -0.05500
C2069       C  0.73999038  0.48541679  0.81671354    -0.16300
C2070       C  0.72422551  0.46294246  0.82151808     0.02600
C2071       C  0.67419763  0.48882864  0.87106872     0.12600
C2072       C  0.70788702  0.53682113  0.86248292     0.63200
H2073       H  0.74692564  0.52587158  0.82626920     0.12600
C2074       C  0.72893120  0.43740905  0.80659554     0.55300
H2075       H  0.69132802  0.44772352  0.84423124     0.08400
C2076       C  0.64815461  0.49080346  0.86104699    -0.05400
C2077       C  0.62687250  0.48841591  0.87880184    -0.06100
C2078       C  0.63046373  0.48316321  0.90612765    -0.15700
C2079       C  0.65684246  0.48191569  0.91622458    -0.01300
C2080       C  0.67818610  0.48482038  0.89833405    -0.08800
C2081       C  0.64274861  0.49462271  0.83153998     0.65400
H2082       H  0.60698897  0.48976146  0.87096901     0.10900
C2083       C  0.66290449  0.47695436  0.94537871     0.63800
H2084       H  0.69838459  0.48311998  0.90532458     0.08200
F2085       F  0.72537737  0.44149813  0.77967990    -0.19200
F2086       F  0.71164160  0.41783697  0.81453305    -0.15500
F2087       F  0.75445349  0.42860454  0.81108230    -0.18900
F2088       F  0.71089953  0.53361695  0.88956849    -0.22300
F2089       F  0.68233938  0.54512047  0.85728416    -0.23800
F2090       F  0.72495686  0.55646126  0.85424481    -0.17800
F2091       F  0.65374440  0.45237693  0.95275016    -0.20300
F2092       F  0.65102944  0.49615996  0.96081209    -0.21400
F2093       F  0.68980342  0.47760809  0.95057290    -0.18600
F2094       F  0.61598489  0.49727210  0.82623591    -0.18700
F2095       F  0.65198978  0.47315841  0.81744267    -0.22500
F2096       F  0.65525431  0.51702591  0.82246405    -0.24100
C2097       C  0.72208970  0.52433066  0.64567822    -0.11000
C2098       C  0.70329766  0.50457008  0.64129051     0.11600
C2099       C  0.70496899  0.48043128  0.65528387    -0.02800
C2100       C  0.72549743  0.47706690  0.67375256    -0.05500
C2101       C  0.74335579  0.49739493  0.67918583    -0.16300
C2102       C  0.74160035  0.52159162  0.66533119     0.02600
C2103       C  0.68054044  0.51070944  0.62391458     0.12600
C2104       C  0.68458400  0.45881883  0.65146930     0.63200
H2105       H  0.72735714  0.45882846  0.68476881     0.12600
C2106       C  0.75875873  0.54500814  0.67274626     0.55300
H2107       H  0.72024067  0.54258658  0.63469396     0.08400
C2108       C  0.65940041  0.52664374  0.63299604    -0.05400
C2109       C  0.63787392  0.53094139  0.61599484    -0.06100
C2110       C  0.63645014  0.51916270  0.59082675    -0.15700
C2111       C  0.65720682  0.50246469  0.58213195    -0.01300
C2112       C  0.67949702  0.49932060  0.59858132    -0.08800
C2113       C  0.65926436  0.53859932  0.66070694     0.65400
H2114       H  0.62174062  0.54353442  0.62234911     0.10900
C2115       C  0.65513768  0.48672266  0.55662069     0.63800
H2116       H  0.69599736  0.48725004  0.59215421     0.08200
F2117       F  0.75402022  0.56645295  0.65642989    -0.19200
F2118       F  0.78528162  0.53873494  0.67071151    -0.15500
F2119       F  0.75329637  0.55238782  0.69860246    -0.18900
F2120       F  0.68499747  0.45004386  0.62551214    -0.22300
F2121       F  0.65960324  0.46836938  0.65730734    -0.23800
F2122       F  0.68945573  0.43741759  0.66780534    -0.17800
F2123       F  0.67494245  0.46789861  0.55480654    -0.20300
F2124       F  0.65716941  0.50331188  0.53496219    -0.21400
F2125       F  0.63109551  0.47378599  0.55577626    -0.18600
F2126       F  0.63559439  0.55124826  0.66622412    -0.18700
F2127       F  0.67933045  0.55685989  0.66302214    -0.22500
F2128       F  0.66284894  0.51910115  0.67956004    -0.24100
loop_ 
_geom_bond_atom_site_label_1 
_geom_bond_atom_site_label_2 
_geom_bond_distance 
_geom_bond_site_symmetry_2 
_ccdc_geom_bond_type 
N1            C6   1.353       .  A
N1            C5   1.350       .  A
N1           H33   1.039       .  S
N2            C9   1.350       .  A
N2           C10   1.351       .  A
N3            C8   1.352       .  A
N3            C7   1.357       .  A
N3           H34   1.038       .  S
N4           C11   1.355       .  A
N4           C12   1.350       .  A
C5           C13   1.388       .  A
C5           C21   1.412       .  A
C6           C22   1.412       .  A
C6           C14   1.386       .  A
C7           C15   1.386       .  A
C7           C24   1.419       .  A
C8           C23   1.419       .  A
C8           C16   1.388       .  A
C9           C21   1.410       .  A
C9           C17   1.386       .  A
C10          C24   1.416       .  A
C10          C18   1.388       .  A
C11          C19   1.384       .  A
C11          C22   1.413       .  A
C12          C20   1.390       .  A
C12          C23   1.418       .  A
C13          C14   1.374       .  A
C13          H25   1.083       .  S
C14          H26   1.082       .  S
C15          C16   1.379       .  A
C15          H27   1.082       .  S
C16          H28   1.082       .  S
C17          C18   1.368       .  A
C17          H29   1.082       .  S
C18          H30   1.082       .  S
C19          C20   1.373       .  A
C19          H31   1.082       .  S
C20          H32   1.082       .  S
C21        C2101   1.481       .  S
C22        C2069   1.493       .  S
C23        C2005   1.484       .  S
C24        C2037   1.496       .  S
N35          C40   1.353       .  A
N35          C39   1.352       .  A
N35          H67   1.038       .  S
N36          C43   1.353       .  A
N36          C44   1.351       .  A
N37          C42   1.354       .  A
N37          C41   1.355       .  A
N37          H68   1.039       .  S
N38          C45   1.351       .  A
N38          C46   1.350       .  A
C39          C47   1.387       .  A
C39          C55   1.415       .  A
C40          C56   1.415       .  A
C40          C48   1.387       .  A
C41          C49   1.387       .  A
C41          C58   1.420       .  A
C42          C57   1.418       .  A
C42          C50   1.386       .  A
C43          C55   1.414       .  A
C43          C51   1.384       .  A
C44          C58   1.419       .  A
C44          C52   1.388       .  A
C45          C53   1.385       .  A
C45          C56   1.411       .  A
C46          C54   1.388       .  A
C46          C57   1.415       .  A
C47          C48   1.377       .  A
C47          H59   1.082       .  S
C48          H60   1.083       .  S
C49          C50   1.381       .  A
C49          H61   1.082       .  S
C50          H62   1.082       .  S
C51          C52   1.372       .  A
C51          H63   1.082       .  S
C52          H64   1.082       .  S
C53          C54   1.372       .  A
C53          H65   1.082       .  S
C54          H66   1.082       .  S
C55        C1941   1.489       .  S
C56        C1973   1.486       .  S
C57        C1918   1.491       .  S
C58        C1877   1.497       .  S
N69          C74   1.349       .  A
N69          C73   1.351       .  A
N69         H101   1.037       .  S
N70          C77   1.354       .  A
N70          C78   1.350       .  A
N71          C76   1.356       .  A
N71          C75   1.354       .  A
N71         H102   1.036       .  S
N72          C79   1.350       .  A
N72          C80   1.350       .  A
C73          C81   1.386       .  A
C73          C89   1.410       .  A
C74          C90   1.411       .  A
C74          C82   1.389       .  A
C75          C83   1.388       .  A
C75          C92   1.420       .  A
C76          C91   1.420       .  A
C76          C84   1.386       .  A
C77          C89   1.411       .  A
C77          C85   1.383       .  A
C78          C92   1.418       .  A
C78          C86   1.390       .  A
C79          C87   1.385       .  A
C79          C90   1.410       .  A
C80          C88   1.389       .  A
C80          C91   1.415       .  A
C81          C82   1.371       .  A
C81          H93   1.082       .  S
C82          H94   1.082       .  S
C83          C84   1.381       .  A
C83          H95   1.082       .  S
C84          H96   1.082       .  S
C85          C86   1.371       .  A
C85          H97   1.082       .  S
C86          H98   1.082       .  S
C87          C88   1.369       .  A
C87          H99   1.082       .  S
C88         H100   1.082       .  S
C89        C1822   1.489       .  S
C90        C1845   1.476       .  S
C91        C1749   1.491       .  S
C92        C1781   1.488       .  S
O103        C119   1.275       .  A
O103       Zn109   2.045       .  S
C104       C1694   1.485       .  S
C104        O120   1.275       .  A
C104        O117   1.278       .  A
O105        C118   1.277       .  A
O105       Cd112   2.086       .  S
O106        C124   1.279       .  A
O106       Cd115   2.094       .  S
O107        C121   1.277       .  A
O107       Cd111   2.075       .  S
O108        C119   1.274       .  A
O108       Cd111   2.056       .  S
Zn109       O120   2.013   1_556  S
Zn109       O122   1.998       .  S
Zn109       O114   1.932       .  S
O110        C121   1.280       .  A
O110       Cd115   2.095       .  S
Cd111       O113   2.093       .  S
Cd111       O114   1.979       .  S
Cd112       O116   2.068       .  S
Cd112       O125   2.070       .  S
Cd112       O114   1.982       .  S
O113        C123   1.279       .  A
O114       Cd115   2.000       .  S
Cd115       O117   2.089   1_556  S
O116        C123   1.272       .  A
C118       C1621   1.485       .  S
C118        O122   1.270       .  A
C119       C2078   1.505       .  S
C121       C1909   1.494       .  S
C123       C1662   1.506       .  S
C124       C1717   1.493       .  S
C124        O125   1.276       .  A
O126        C142   1.277       .  A
O126       Zn132   2.034       .  S
C127       C1534   1.504       .  S
C127        O143   1.277       .  A
C127        O140   1.276       .  A
O128        C141   1.274       .  A
O128       Cd135   2.073       .  S
O129        C147   1.275       .  A
O129       Cd138   2.078       .  S
O130        C144   1.276       .  A
O130       Cd134   2.053       .  S
O131        C142   1.271       .  A
O131       Cd134   2.055       .  S
Zn132       O143   2.024       .  S
Zn132       O145   2.016       .  S
Zn132       O137   1.931       .  S
O133        C144   1.275       .  A
O133       Cd138   2.084       .  S
Cd134       O136   2.071       .  S
Cd134       O137   1.984       .  S
Cd135       O139   2.052       .  S
Cd135       O148   2.070       .  S
Cd135       O137   1.984       .  S
O136        C146   1.273       .  A
O137       Cd138   1.993       .  S
Cd138       O140   2.085       .  S
O139        C146   1.272       .  A
C141       C1982   1.491       .  S
C141        O145   1.275       .  A
C142       C1813   1.493       .  S
C144       C1566   1.500       .  S
C146       C2110   1.476       .  S
C147       C1589   1.488       .  S
C147        O148   1.277       .  A
O149        C165   1.275       .  A
O149       Zn155   2.035       .  S
C150       C1790   1.499       .  S
C150        O166   1.273       .  A
C150        O163   1.279       .  A
O151        C164   1.275       .  A
O151       Cd158   2.086       .  S
O152        C170   1.279       .  A
O152       Cd161   2.104   1_545  S
O153        C167   1.279       .  A
O153       Cd157   2.084       .  S
O154        C165   1.272       .  A
O154       Cd157   2.054       .  S
Zn155       O166   2.016       .  S
Zn155       O168   2.018       .  S
Zn155       O160   1.939       .  S
O156        C167   1.276       .  A
O156       Cd161   2.090       .  S
Cd157       O159   2.079       .  S
Cd157       O160   1.995       .  S
Cd158       O162   2.070       .  S
Cd158       O171   2.079   1_565  S
Cd158       O160   1.992       .  S
O159        C169   1.278       .  A
O160       Cd161   1.999       .  S
Cd161       O163   2.088       .  S
O162        C169   1.273       .  A
C164       C1950   1.506       .  S
C164        O168   1.275       .  A
C165       C1438   1.484       .  S
C167       C1397   1.508       .  S
C169       C1461   1.499       .  S
C170       C1493   1.503       .  S
C170        O171   1.279       .  A
N172        C177   1.354       .  A
N172        C176   1.351       .  A
N172        H204   1.035       .  S
N173        C180   1.353       .  A
N173        C181   1.353       .  A
N174        C179   1.354       .  A
N174        C178   1.357       .  A
N174        H205   1.034       .  S
N175        C182   1.354       .  A
N175        C183   1.351       .  A
C176        C184   1.387       .  A
C176        C192   1.414       .  A
C177        C193   1.418       .  A
C177        C185   1.388       .  A
C178        C186   1.386       .  A
C178        C195   1.423       .  A
C179        C194   1.424       .  A
C179        C187   1.388       .  A
C180        C192   1.414       .  A
C180        C188   1.385       .  A
C181        C195   1.421       .  A
C181        C189   1.388       .  A
C182        C190   1.384       .  A
C182        C193   1.415       .  A
C183        C191   1.390       .  A
C183        C194   1.421       .  A
C184        C185   1.372       .  A
C184        H196   1.082       .  S
C185        H197   1.082       .  S
C186        C187   1.381       .  A
C186        H198   1.082       .  S
C187        H199   1.082       .  S
C188        C189   1.368       .  A
C188        H200   1.082       .  S
C189        H201   1.081       .  S
C190        C191   1.369       .  A
C190        H202   1.082       .  S
C191        H203   1.082       .  S
C192       C1374   1.482       .  S
C193       C1653   1.493       .  S
C194       C1598   1.489       .  S
C195       C1502   1.499       .  S
O206        C222   1.277       .  A
O206       Zn212   2.044       .  S
C207       C1342   1.509       .  S
C207        O223   1.277       .  A
C207        O220   1.279       .  A
O208        C221   1.272       .  A
O208       Cd215   2.064       .  S
O209        C227   1.281       .  A
O209       Cd218   2.111   1_565  S
O210        C224   1.274   1_556  A
O210       Cd214   2.067       .  S
O211        C222   1.270       .  A
O211       Cd214   2.058       .  S
Zn212       O223   2.011       .  S
Zn212       O225   2.017       .  S
Zn212       O217   1.937       .  S
O213        C224   1.282       .  A
O213       Cd218   2.105   1_554  S
Cd214       O216   2.081       .  S
Cd214       O217   1.984       .  S
Cd215       O219   2.066       .  S
Cd215       O228   2.061   1_545  S
Cd215       O217   1.986       .  S
O216        C226   1.277       .  A
O217       Cd218   2.006       .  S
Cd218       O220   2.107       .  S
O219        C226   1.271       .  A
C221       C1365   1.498       .  S
C221        O225   1.275       .  A
C222       C1301   1.498       .  S
C224       C1237   1.503       .  S
C226       C1278   1.500       .  S
C227       C1886   1.494       .  S
C227        O228   1.274       .  A
N229        C234   1.353       .  A
N229        C233   1.354       .  A
N229        H261   1.038   1_554  S
N230        C237   1.353       .  A
N230        C238   1.352       .  A
N231        C236   1.355   1_556  A
N231        C235   1.354   1_556  A
N231        H262   1.039       .  S
N232        C239   1.353   1_554  A
N232        C240   1.351   1_554  A
C233        C241   1.387       .  A
C233        C249   1.417       .  A
C234        C250   1.416       .  A
C234        C242   1.387       .  A
C235        C243   1.387       .  A
C235        C252   1.418   1_554  A
C236        C251   1.419       .  A
C236        C244   1.387       .  A
C237        C249   1.416   1_556  A
C237        C245   1.386       .  A
C238        C252   1.417       .  A
C238        C246   1.387       .  A
C239        C247   1.385       .  A
C239        C250   1.412   1_556  A
C240        C248   1.388       .  A
C240        C251   1.417   1_556  A
C241        C242   1.376       .  A
C241        H253   1.082       .  S
C242        H254   1.082       .  S
C243        C244   1.381       .  A
C243        H255   1.082       .  S
C244        H256   1.082       .  S
C245        C246   1.373       .  A
C245        H257   1.082       .  S
C246        H258   1.082       .  S
C247        C248   1.372       .  A
C247        H259   1.082       .  S
C248        H260   1.082       .  S
C249       C1630   1.495       .  S
C250       C1205   1.489       .  S
C251       C1173   1.494       .  S
C252       C1333   1.494       .  S
N263        C268   1.354       .  A
N263        C267   1.352       .  A
N263        H295   1.037   1_565  S
N264        C271   1.353       .  A
N264        C272   1.353   1_565  A
N265        C270   1.354       .  A
N265        C269   1.356       .  A
N265        H296   1.036   1_565  S
N266        C273   1.354       .  A
N266        C274   1.350       .  A
C267        C275   1.388       .  A
C267        C283   1.417       .  A
C268        C284   1.415       .  A
C268        C276   1.386       .  A
C269        C277   1.386       .  A
C269        C286   1.420       .  A
C270        C285   1.421       .  A
C270        C278   1.387       .  A
C271        C283   1.416       .  A
C271        C279   1.386   1_565  A
C272        C286   1.418   1_545  A
C272        C280   1.387       .  A
C273        C281   1.383   1_565  A
C273        C284   1.412       .  A
C274        C282   1.390   1_565  A
C274        C285   1.419       .  A
C275        C276   1.373       .  A
C275        H287   1.081       .  S
C276        H288   1.082       .  S
C277        C278   1.379       .  A
C277        H289   1.082       .  S
C278        H290   1.082       .  S
C279        C280   1.371       .  A
C279        H291   1.082       .  S
C280        H292   1.082       .  S
C281        C282   1.371       .  A
C281        H293   1.082       .  S
C282        H294   1.081       .  S
C283       C1269   1.489       .  S
C284       C1470   1.493       .  S
C285       C1141   1.488       .  S
C286       C1109   1.498       .  S
N297        C302   1.350       .  A
N297        C301   1.350   1_455  A
N297        H329   1.039       .  S
N298        C305   1.350   1_655  A
N298        C306   1.349   1_655  A
N299        C304   1.353       .  A
N299        C303   1.353       .  A
N299        H330   1.039   1_655  S
N300        C307   1.352       .  A
N300        C308   1.350       .  A
C301        C309   1.387       .  A
C301        C317   1.411   1_655  A
C302        C318   1.410       .  A
C302        C310   1.387   1_455  A
C303        C311   1.386       .  A
C303        C320   1.415       .  A
C304        C319   1.415       .  A
C304        C312   1.387       .  A
C305        C317   1.407       .  A
C305        C313   1.385       .  A
C306        C320   1.412   1_455  A
C306        C314   1.388       .  A
C307        C315   1.385       .  A
C307        C318   1.411       .  A
C308        C316   1.387       .  A
C308        C319   1.416   1_455  A
C309        C310   1.376       .  A
C309        H321   1.082       .  S
C310        H322   1.082       .  S
C311        C312   1.381       .  A
C311        H323   1.082       .  S
C312        H324   1.082       .  S
C313        C314   1.370       .  A
C313        H325   1.082       .  S
C314        H326   1.082       .  S
C315        C316   1.371       .  A
C315        H327   1.082       .  S
C316        H328   1.081       .  S
C317       C1045   1.479   1_455  S
C318       C1077   1.483       .  S
C319        C990   1.490       .  S
C320       C1013   1.489       .  S
N331        C336   1.349       .  A
N331        C335   1.351       .  A
N331        H363   1.040       .  S
N332        C339   1.353       .  A
N332        C340   1.349       .  A
N333        C338   1.356       .  A
N333        C337   1.356       .  A
N333        H364   1.039       .  S
N334        C341   1.351       .  A
N334        C342   1.350       .  A
C335        C343   1.387       .  A
C335        C351   1.409       .  A
C336        C352   1.409       .  A
C336        C344   1.387       .  A
C337        C345   1.387       .  A
C337        C354   1.424       .  A
C338        C353   1.423       .  A
C338        C346   1.387       .  A
C339        C351   1.412       .  A
C339        C347   1.384       .  A
C340        C354   1.417       .  A
C340        C348   1.389       .  A
C341        C349   1.384       .  A
C341        C352   1.410       .  A
C342        C350   1.389       .  A
C342        C353   1.415       .  A
C343        C344   1.376       .  A
C343        H355   1.082       .  S
C344        H356   1.082       .  S
C345        C346   1.384       .  A
C345        H357   1.082       .  S
C346        H358   1.082       .  S
C347        C348   1.375       .  A
C347        H359   1.082       .  S
C348        H360   1.082       .  S
C349        C350   1.371       .  A
C349        H361   1.082       .  S
C350        H362   1.082       .  S
C351        C949   1.491       .  S
C352       C1429   1.481       .  S
C353       C1525   1.494       .  S
C354        C926   1.499       .  S
N365        C370   1.353       .  A
N365        C369   1.351       .  A
N365        H397   1.036       .  S
N366        C373   1.352       .  A
N366        C374   1.351       .  A
N367        C372   1.352       .  A
N367        C371   1.352       .  A
N367        H398   1.038       .  S
N368        C375   1.352       .  A
N368        C376   1.350       .  A
C369        C377   1.389       .  A
C369        C385   1.415       .  A
C370        C386   1.415       .  A
C370        C378   1.387       .  A
C371        C379   1.387       .  A
C371        C388   1.414       .  A
C372        C387   1.412       .  A
C372        C380   1.386       .  A
C373        C385   1.412       .  A
C373        C381   1.385       .  A
C374        C388   1.416       .  A
C374        C382   1.388       .  A
C375        C383   1.386       .  A
C375        C386   1.411       .  A
C376        C384   1.388       .  A
C376        C387   1.414       .  A
C377        C378   1.374       .  A
C377        H389   1.083       .  S
C378        H390   1.082       .  S
C379        C380   1.378       .  A
C379        H391   1.082       .  S
C380        H392   1.082       .  S
C381        C382   1.372       .  A
C381        H393   1.082       .  S
C382        H394   1.082       .  S
C383        C384   1.371       .  A
C383        H395   1.083       .  S
C384        H396   1.082       .  S
C385        C894   1.484       .  S
C386        C853   1.488       .  S
C387       C1557   1.484       .  S
C388       C1685   1.489       .  S
O399        C415   1.276       .  A
O399       Zn405   2.036       .  S
C400       C2046   1.509       .  S
C400        O416   1.274       .  A
C400        O413   1.282       .  A
O401        C414   1.276       .  A
O401       Cd408   2.066       .  S
O402        C420   1.280       .  A
O402       Cd411   2.107   1_455  S
O403        C417   1.272       .  A
O403       Cd407   2.050       .  S
O404        C415   1.269       .  A
O404       Cd407   2.051       .  S
Zn405       O416   2.022       .  S
Zn405       O418   2.004       .  S
Zn405       O410   1.936       .  S
O406        C417   1.281       .  A
O406       Cd411   2.100       .  S
Cd407       O409   2.066       .  S
Cd407       O410   1.986       .  S
Cd408       O412   2.052       .  S
Cd408       O421   2.070   1_655  S
Cd408       O410   1.987       .  S
O409        C419   1.271       .  A
O410       Cd411   1.998       .  S
Cd411       O413   2.104       .  S
O412        C419   1.273       .  A
C414       C1854   1.488       .  S
C414        O418   1.271       .  A
C415        C862   1.491       .  S
C417        C821   1.489       .  S
C419       C1054   1.494       .  S
C420        C917   1.498       .  S
C420        O421   1.277       .  A
O422        C438   1.273       .  A
O422       Zn428   2.027       .  S
C423       C1758   1.489       .  S
C423        O439   1.271       .  A
C423        O436   1.278       .  A
O424        C437   1.271       .  A
O424       Cd431   2.063       .  S
O425        C443   1.278       .  A
O425       Cd434   2.087   1_545  S
O426        C440   1.279       .  A
O426       Cd430   2.076       .  S
O427        C438   1.276       .  A
O427       Cd430   2.074       .  S
Zn428       O439   2.001   1_455  S
Zn428       O441   1.999       .  S
Zn428       O433   1.925       .  S
O429        C440   1.274       .  A
O429       Cd434   2.070       .  S
Cd430       O432   2.096       .  S
Cd430       O433   1.992       .  S
Cd431       O435   2.050       .  S
Cd431       O444   2.046   1_565  S
Cd431       O433   1.988       .  S
O432        C442   1.277       .  A
O433       Cd434   2.001       .  S
Cd434       O436   2.089   1_455  S
O435        C442   1.273       .  A
C437       C1086   1.492       .  S
C437        O441   1.274       .  A
C438        C958   1.500       .  S
C440       C1150   1.497       .  S
C442        C798   1.503       .  S
C443        C766   1.486       .  S
C443        O444   1.271       .  A
O445        C461   1.278       .  A
O445       Zn451   2.048       .  S
C446        C702   1.504       .  S
C446        O462   1.279       .  A
C446        O459   1.275       .  A
O447        C460   1.273       .  A
O447       Cd454   2.074       .  S
O448        C466   1.277       .  A
O448       Cd457   2.086       .  S
O449        C463   1.275       .  A
O449       Cd453   2.057   1_556  S
O450        C461   1.269       .  A
O450       Cd453   2.050       .  S
Zn451       O462   2.029   1_655  S
Zn451       O464   2.009       .  S
Zn451       O456   1.937       .  S
O452        C463   1.275       .  A
O452       Cd457   2.080   1_556  S
Cd453       O455   2.056       .  S
Cd453       O456   1.982       .  S
Cd454       O458   2.059       .  S
Cd454       O467   2.074       .  S
Cd454       O456   1.994       .  S
O455        C465   1.271       .  A
O456       Cd457   1.990       .  S
Cd457       O459   2.076   1_655  S
O458        C465   1.274       .  A
C460        C734   1.497       .  S
C460        O464   1.275       .  A
C461       C1214   1.492       .  S
C463       C2014   1.494       .  S
C465        C885   1.489       .  S
C466       C1022   1.485       .  S
C466        O467   1.276       .  A
N468        C473   1.352       .  A
N468        C472   1.351       .  A
N468        H500   1.040   1_545  S
N469        C476   1.353   1_545  A
N469        C477   1.351   1_545  A
N470        C475   1.356   1_565  A
N470        C474   1.355   1_565  A
N470        H501   1.039       .  S
N471        C478   1.353       .  A
N471        C479   1.351       .  A
C472        C480   1.387       .  A
C472        C488   1.412       .  A
C473        C489   1.412   1_545  A
C473        C481   1.387       .  A
C474        C482   1.387       .  A
C474        C491   1.420       .  A
C475        C490   1.421   1_545  A
C475        C483   1.387       .  A
C476        C488   1.412   1_565  A
C476        C484   1.384       .  A
C477        C491   1.417   1_565  A
C477        C485   1.389       .  A
C478        C486   1.384       .  A
C478        C489   1.412       .  A
C479        C487   1.389       .  A
C479        C490   1.417       .  A
C480        C481   1.376       .  A
C480        H492   1.082       .  S
C481        H493   1.082       .  S
C482        C483   1.382       .  A
C482        H494   1.082       .  S
C483        H495   1.082       .  S
C484        C485   1.372       .  A
C484        H496   1.082       .  S
C485        H497   1.082       .  S
C486        C487   1.372       .  A
C486        H498   1.082       .  S
C487        H499   1.082       .  S
C488        C661   1.491       .  S
C489        C789   1.489       .  S
C490       C1406   1.495       .  S
C491       C1246   1.493       .  S
O502        C518   1.276       .  A
O502       Zn508   2.050       .  S
C503       C1182   1.490       .  S
C503        O519   1.275       .  A
C503        O516   1.280       .  A
O504        C517   1.273       .  A
O504       Cd511   2.082       .  S
O505        C523   1.278       .  A
O505       Cd514   2.095   1_565  S
O506        C520   1.271       .  A
O506       Cd510   2.060   1_556  S
O507        C518   1.274       .  A
O507       Cd510   2.055       .  S
Zn508       O519   2.013   1_455  S
Zn508       O521   2.014       .  S
Zn508       O513   1.934       .  S
O509        C520   1.283       .  A
O509       Cd514   2.115   1_556  S
Cd510       O512   2.060       .  S
Cd510       O513   1.979       .  S
Cd511       O515   2.067       .  S
Cd511       O524   2.071   1_545  S
Cd511       O513   1.997       .  S
O512        C522   1.273       .  A
O513       Cd514   2.005       .  S
Cd514       O516   2.095   1_455  S
O515        C522   1.273       .  A
C517        C638   1.504       .  S
C517        O521   1.275       .  A
C518        C606   1.499       .  S
C520       C1118   1.510       .  S
C522        C670   1.474       .  S
C523        C981   1.499       .  S
C523        O524   1.278       .  A
N525        C530   1.351       .  A
N525        C529   1.352       .  A
N525        H557   1.039   1_655  S
N526        C533   1.354       .  A
N526        C534   1.351       .  A
N527        C532   1.354       .  A
N527        C531   1.351       .  A
N527        H558   1.038   1_655  S
N528        C535   1.352       .  A
N528        C536   1.352       .  A
C529        C537   1.386       .  A
C529        C545   1.415       .  A
C530        C546   1.417       .  A
C530        C538   1.388       .  A
C531        C539   1.388       .  A
C531        C548   1.419       .  A
C532        C547   1.419       .  A
C532        C540   1.386       .  A
C533        C545   1.414       .  A
C533        C541   1.384   1_655  A
C534        C548   1.422       .  A
C534        C542   1.390   1_655  A
C535        C543   1.385   1_655  A
C535        C546   1.413       .  A
C536        C544   1.388   1_655  A
C536        C547   1.418       .  A
C537        C538   1.375       .  A
C537        H549   1.082       .  S
C538        H550   1.082       .  S
C539        C540   1.378       .  A
C539        H551   1.082       .  S
C540        H552   1.082       .  S
C541        C542   1.369       .  A
C541        H553   1.082       .  S
C542        H554   1.082       .  S
C543        C544   1.370       .  A
C543        H555   1.082       .  S
C544        H556   1.082       .  S
C545        C629   1.491       .  S
C546        C725   1.485       .  S
C547        C830   1.492       .  S
C548        C757   1.485       .  S
N559        C564   1.354   1_554  A
N559        C563   1.353   1_554  A
N559        H591   1.036       .  S
N560        C567   1.354       .  A
N560        C568   1.354       .  A
N561        C566   1.354   1_554  A
N561        C565   1.354   1_554  A
N561        H592   1.036       .  S
N562        C569   1.353       .  A
N562        C570   1.350       .  A
C563        C571   1.389       .  A
C563        C579   1.419       .  A
C564        C580   1.415   1_556  A
C564        C572   1.385       .  A
C565        C573   1.387       .  A
C565        C582   1.417       .  A
C566        C581   1.417   1_556  A
C566        C574   1.387       .  A
C567        C579   1.418       .  A
C567        C575   1.386       .  A
C568        C582   1.419       .  A
C568        C576   1.387       .  A
C569        C577   1.384       .  A
C569        C580   1.412       .  A
C570        C578   1.388       .  A
C570        C581   1.417       .  A
C571        C572   1.373       .  A
C571        H583   1.081       .  S
C572        H584   1.083       .  S
C573        C574   1.377       .  A
C573        H585   1.082       .  S
C574        H586   1.082       .  S
C575        C576   1.371       .  A
C575        H587   1.082       .  S
C576        H588   1.082       .  S
C577        C578   1.369       .  A
C577        H589   1.082       .  S
C578        H590   1.081       .  S
C579       C1310   1.491       .  S
C580        C597   1.490       .  S
C581        C693   1.488       .  S
C582       C1726   1.494       .  S
C593        C594   1.403       .  A
C593        C598   1.405       .  A
C593        H603   1.083       .  S
C594        C595   1.416   1_554  A
C594        C599   1.484       .  S
C595        C596   1.408       .  A
C595        C600   1.519       .  S
C596        C597   1.404   1_556  A
C596        H601   1.083       .  S
C597        C598   1.415       .  A
C598        C602   1.518       .  S
C599        C604   1.413       .  A
C599        C608   1.402       .  A
C600        F616   1.382       .  S
C600        F617   1.381       .  S
C600        F618   1.385       .  S
C602        F613   1.382       .  S
C602        F614   1.385       .  S
C602        F615   1.383       .  S
C604        C605   1.405       .  A
C604        C609   1.523   1_554  S
C605        C606   1.411       .  A
C605        H610   1.082   1_554  S
C606        C607   1.426       .  A
C607        C608   1.412       .  A
C607        C611   1.520       .  S
C608        H612   1.083       .  S
C609        F622   1.385       .  S
C609        F623   1.382   1_556  S
C609        F624   1.380       .  S
C611        F619   1.384       .  S
C611        F620   1.382       .  S
C611        F621   1.385       .  S
C625        C626   1.402   1_455  A
C625        C630   1.405       .  A
C625        H635   1.083       .  S
C626        C627   1.417       .  A
C626        C631   1.485   1_655  S
C627        C628   1.410       .  A
C627        C632   1.519       .  S
C628        C629   1.404       .  A
C628        H633   1.083       .  S
C629        C630   1.416   1_655  A
C630        C634   1.519       .  S
C631        C636   1.411       .  A
C631        C640   1.401       .  A
C632        F648   1.382       .  S
C632        F649   1.382       .  S
C632        F650   1.384       .  S
C634        F645   1.384       .  S
C634        F646   1.382       .  S
C634        F647   1.383       .  S
C636        C637   1.404       .  A
C636        C641   1.522       .  S
C637        C638   1.412       .  A
C637        H642   1.081       .  S
C638        C639   1.430       .  A
C639        C640   1.412       .  A
C639        C643   1.521       .  S
C640        H644   1.083       .  S
C641        F654   1.385       .  S
C641        F655   1.382       .  S
C641        F656   1.382   1_455  S
C643        F651   1.385       .  S
C643        F652   1.381       .  S
C643        F653   1.383   1_455  S
C657        C658   1.401   1_565  A
C657        C662   1.405       .  A
C657        H667   1.083       .  S
C658        C659   1.416       .  A
C658        C663   1.482       .  S
C659        C660   1.407       .  A
C659        C664   1.520       .  S
C660        C661   1.404       .  A
C660        H665   1.083       .  S
C661        C662   1.417   1_545  A
C662        C666   1.519       .  S
C663        C668   1.416   1_545  A
C663        C672   1.401       .  A
C664        F680   1.382       .  S
C664        F681   1.382       .  S
C664        F682   1.384       .  S
C666        F677   1.385       .  S
C666        F678   1.380       .  S
C666        F679   1.383       .  S
C668        C669   1.407   1_565  A
C668        C673   1.518       .  S
C669        C670   1.403       .  A
C669        H674   1.083   1_545  S
C670        C671   1.417       .  A
C671        C672   1.403       .  A
C671        C675   1.520       .  S
C672        H676   1.083       .  S
C673        F686   1.385       .  S
C673        F687   1.382       .  S
C673        F688   1.382       .  S
C675        F683   1.385       .  S
C675        F684   1.381       .  S
C675        F685   1.384       .  S
C689        C690   1.403   1_554  A
C689        C694   1.406       .  A
C689        H699   1.083       .  S
C690        C691   1.415       .  A
C690        C695   1.485   1_556  S
C691        C692   1.407       .  A
C691        C696   1.518       .  S
C692        C693   1.404   1_556  A
C692        H697   1.083       .  S
C693        C694   1.415       .  A
C694        C698   1.517       .  S
C695        C700   1.413       .  A
C695        C704   1.399   1_554  A
C696        F712   1.382       .  S
C696        F713   1.382       .  S
C696        F714   1.385       .  S
C698        F709   1.383       .  S
C698        F710   1.384       .  S
C698        F711   1.382       .  S
C700        C701   1.404       .  A
C700        C705   1.523       .  S
C701        C702   1.411       .  A
C701        H706   1.081       .  S
C702        C703   1.431   1_554  A
C703        C704   1.413       .  A
C703        C707   1.521       .  S
C704        H708   1.083       .  S
C705        F718   1.384       .  S
C705        F719   1.382       .  S
C705        F720   1.382   1_554  S
C707        F715   1.385       .  S
C707        F716   1.383   1_556  S
C707        F717   1.384       .  S
C721        C722   1.403       .  A
C721        C726   1.406       .  A
C721        H731   1.083       .  S
C722        C723   1.414   1_655  A
C722        C727   1.481       .  S
C723        C724   1.405       .  A
C723        C728   1.518       .  S
C724        C725   1.402   1_455  A
C724        H729   1.083       .  S
C725        C726   1.415       .  A
C726        C730   1.518       .  S
C727        C732   1.412       .  A
C727        C736   1.400       .  A
C728        F744   1.382       .  S
C728        F745   1.381       .  S
C728        F746   1.385       .  S
C730        F741   1.385       .  S
C730        F742   1.383       .  S
C730        F743   1.382       .  S
C732        C733   1.403       .  A
C732        C737   1.523       .  S
C733        C734   1.411       .  A
C733        H738   1.082       .  S
C734        C735   1.426       .  A
C735        C736   1.410       .  A
C735        C739   1.520       .  S
C736        H740   1.083       .  S
C737        F750   1.385       .  S
C737        F751   1.382       .  S
C737        F752   1.381   1_655  S
C739        F747   1.385       .  S
C739        F748   1.383       .  S
C739        F749   1.383   1_655  S
C753        C754   1.402   1_655  A
C753        C758   1.404       .  A
C753        H763   1.083       .  S
C754        C755   1.419       .  A
C754        C759   1.476       .  S
C755        C756   1.402       .  A
C755        C760   1.521       .  S
C756        C757   1.402   1_455  A
C756        H761   1.085       .  S
C757        C758   1.415       .  A
C758        C762   1.519       .  S
C759        C764   1.410       .  A
C759        C768   1.398       .  A
C760        F776   1.384       .  S
C760        F777   1.381       .  S
C760        F778   1.383       .  S
C762        F773   1.384       .  S
C762        F774   1.382       .  S
C762        F775   1.381       .  S
C764        C765   1.407       .  A
C764        C769   1.517       .  S
C765        C766   1.409       .  A
C765        H770   1.083       .  S
C766        C767   1.425       .  A
C767        C768   1.403       .  A
C767        C771   1.522   1_455  S
C768        H772   1.084   1_455  S
C769        F782   1.384       .  S
C769        F783   1.383   1_455  S
C769        F784   1.383       .  S
C771        F779   1.385       .  S
C771        F780   1.384       .  S
C771        F781   1.383   1_655  S
C785        C786   1.403       .  A
C785        C790   1.406       .  A
C785        H795   1.083       .  S
C786        C787   1.417   1_565  A
C786        C791   1.486       .  S
C787        C788   1.409       .  A
C787        C792   1.518       .  S
C788        C789   1.403   1_545  A
C788        H793   1.083       .  S
C789        C790   1.415       .  A
C790        C794   1.519       .  S
C791        C796   1.412       .  A
C791        C800   1.401       .  A
C792        F808   1.382       .  S
C792        F809   1.382       .  S
C792        F810   1.384       .  S
C794        F805   1.382       .  S
C794        F806   1.385       .  S
C794        F807   1.382       .  S
C796        C797   1.405       .  A
C796        C801   1.522       .  S
C797        C798   1.414       .  A
C797        H802   1.082       .  S
C798        C799   1.426       .  A
C799        C800   1.411       .  A
C799        C803   1.519       .  S
C800        H804   1.083       .  S
C801        F814   1.385   1_565  S
C801        F815   1.382       .  S
C801        F816   1.382   1_565  S
C803        F811   1.383       .  S
C803        F812   1.384   1_565  S
C803        F813   1.385       .  S
C817        C818   1.400   1_455  A
C817        C822   1.406       .  A
C817        H827   1.084       .  S
C818        C819   1.413       .  A
C818        C823   1.484       .  S
C819        C820   1.409       .  A
C819        C824   1.518       .  S
C820        C821   1.408       .  A
C820        H825   1.083       .  S
C821        C822   1.424   1_655  A
C822        C826   1.521       .  S
C823        C828   1.416       .  A
C823        C832   1.401   1_655  A
C824        F840   1.382   1_655  S
C824        F841   1.382       .  S
C824        F842   1.384       .  S
C826        F837   1.385       .  S
C826        F838   1.384       .  S
C826        F839   1.383   1_455  S
C828        C829   1.406       .  A
C828        C833   1.521       .  S
C829        C830   1.405       .  A
C829        H834   1.083       .  S
C830        C831   1.420   1_655  A
C831        C832   1.407       .  A
C831        C835   1.517       .  S
C832        H836   1.085       .  S
C833        F846   1.385       .  S
C833        F847   1.383       .  S
C833        F848   1.381       .  S
C835        F843   1.383       .  S
C835        F844   1.380       .  S
C835        F845   1.384       .  S
C849        C850   1.401       .  A
C849        C854   1.406       .  A
C849        H859   1.083       .  S
C850        C851   1.417       .  A
C850        C855   1.480       .  S
C851        C852   1.405       .  A
C851        C856   1.521       .  S
C852        C853   1.402       .  A
C852        H857   1.083       .  S
C853        C854   1.417       .  A
C854        C858   1.519       .  S
C855        C860   1.411       .  A
C855        C864   1.398       .  A
C856        F872   1.382       .  S
C856        F873   1.381       .  S
C856        F874   1.385       .  S
C858        F869   1.381       .  S
C858        F870   1.384       .  S
C858        F871   1.383       .  S
C860        C861   1.407       .  A
C860        C865   1.519       .  S
C861        C862   1.410       .  A
C861        H866   1.082       .  S
C862        C863   1.426       .  A
C863        C864   1.405       .  A
C863        C867   1.521       .  S
C864        H868   1.084       .  S
C865        F878   1.384       .  S
C865        F879   1.383       .  S
C865        F880   1.381       .  S
C867        F875   1.384       .  S
C867        F876   1.383       .  S
C867        F877   1.385       .  S
C881        C882   1.399       .  A
C881        C886   1.407       .  A
C881        H891   1.083       .  S
C882        C883   1.412       .  A
C882        C887   1.476       .  S
C883        C884   1.401       .  A
C883        C888   1.523       .  S
C884        C885   1.409       .  A
C884        H889   1.082       .  S
C885        C886   1.425       .  A
C886        C890   1.520       .  S
C887        C892   1.413       .  A
C887        C896   1.401       .  A
C888        F904   1.382       .  S
C888        F905   1.382       .  S
C888        F906   1.385       .  S
C890        F901   1.384       .  S
C890        F902   1.385       .  S
C890        F903   1.383       .  S
C892        C893   1.405       .  A
C892        C897   1.519       .  S
C893        C894   1.403       .  A
C893        H898   1.083       .  S
C894        C895   1.415       .  A
C895        C896   1.403       .  A
C895        C899   1.519       .  S
C896        H900   1.083       .  S
C897        F910   1.384       .  S
C897        F911   1.383       .  S
C897        F912   1.382       .  S
C899        F907   1.385       .  S
C899        F908   1.382       .  S
C899        F909   1.382       .  S
C913        C914   1.404       .  A
C913        C918   1.415       .  A
C913        H923   1.083       .  S
C914        C915   1.417       .  A
C914        C919   1.494       .  S
C915        C916   1.406       .  A
C915        C920   1.522       .  S
C916        C917   1.408       .  A
C916        H921   1.083       .  S
C917        C918   1.422       .  A
C918        C922   1.517       .  S
C919        C924   1.415       .  A
C919        C928   1.404       .  A
C920        F936   1.381       .  S
C920        F937   1.382       .  S
C920        F938   1.384       .  S
C922        F933   1.385       .  S
C922        F934   1.382       .  S
C922        F935   1.384       .  S
C924        C925   1.408       .  A
C924        C929   1.519       .  S
C925        C926   1.409       .  A
C925        H930   1.083       .  S
C926        C927   1.422       .  A
C927        C928   1.410       .  A
C927        C931   1.518       .  S
C928        H932   1.085       .  S
C929        F942   1.385       .  S
C929        F943   1.382       .  S
C929        F944   1.383       .  S
C931        F939   1.384       .  S
C931        F940   1.379       .  S
C931        F941   1.383       .  S
C945        C946   1.401       .  A
C945        C950   1.404       .  A
C945        H955   1.083       .  S
C946        C947   1.417       .  A
C946        C951   1.487       .  S
C947        C948   1.411       .  A
C947        C952   1.518       .  S
C948        C949   1.405       .  A
C948        H953   1.083       .  S
C949        C950   1.417       .  A
C950        C954   1.519       .  S
C951        C956   1.414       .  A
C951        C960   1.400       .  A
C952        F968   1.382       .  S
C952        F969   1.382       .  S
C952        F970   1.385       .  S
C954        F965   1.381       .  S
C954        F966   1.384       .  S
C954        F967   1.383       .  S
C956        C957   1.406       .  A
C956        C961   1.521       .  S
C957        C958   1.410       .  A
C957        H962   1.082       .  S
C958        C959   1.428       .  A
C959        C960   1.411       .  A
C959        C963   1.521       .  S
C960        H964   1.083       .  S
C961        F974   1.385       .  S
C961        F975   1.382       .  S
C961        F976   1.382       .  S
C963        F971   1.383       .  S
C963        F972   1.383       .  S
C963        F973   1.385       .  S
C977        C978   1.402   1_655  A
C977        C982   1.414       .  A
C977        H987   1.083       .  S
C978        C979   1.415       .  A
C978        C983   1.488   1_455  S
C979        C980   1.403       .  A
C979        C984   1.522       .  S
C980        C981   1.409       .  A
C980        H985   1.082       .  S
C981        C982   1.426   1_455  A
C982        C986   1.519       .  S
C983        C988   1.416       .  A
C983        C992   1.404   1_655  A
C984       F1000   1.382       .  S
C984       F1001   1.382       .  S
C984       F1002   1.384       .  S
C986        F997   1.385       .  S
C986        F998   1.382       .  S
C986        F999   1.384       .  S
C988        C989   1.407       .  A
C988        C993   1.519       .  S
C989        C990   1.403       .  A
C989        H994   1.083       .  S
C990        C991   1.415   1_655  A
C991        C992   1.408       .  A
C991        C995   1.518       .  S
C992        H996   1.083       .  S
C993       F1006   1.384       .  S
C993       F1007   1.382       .  S
C993       F1008   1.383       .  S
C995       F1003   1.382       .  S
C995       F1004   1.383       .  S
C995       F1005   1.384       .  S
C1009      C1010   1.401       .  A
C1009      C1014   1.401       .  A
C1009      H1019   1.085       .  S
C1010      C1011   1.416   1_655  A
C1010      C1015   1.485       .  S
C1011      C1012   1.410       .  A
C1011      C1016   1.517       .  S
C1012      C1013   1.404   1_455  A
C1012      H1017   1.083       .  S
C1013      C1014   1.418       .  A
C1014      C1018   1.518       .  S
C1015      C1020   1.418   1_655  A
C1015      C1024   1.400       .  A
C1016      F1032   1.382       .  S
C1016      F1033   1.381       .  S
C1016      F1034   1.385       .  S
C1018      F1029   1.383       .  S
C1018      F1030   1.384       .  S
C1018      F1031   1.383       .  S
C1020      C1021   1.409       .  A
C1020      C1025   1.521       .  S
C1021      C1022   1.405   1_455  A
C1021      H1026   1.083       .  S
C1022      C1023   1.421       .  A
C1023      C1024   1.408       .  A
C1023      C1027   1.520       .  S
C1024      H1028   1.083       .  S
C1025      F1038   1.385       .  S
C1025      F1039   1.382       .  S
C1025      F1040   1.381       .  S
C1027      F1035   1.384       .  S
C1027      F1036   1.382       .  S
C1027      F1037   1.385       .  S
C1041      C1042   1.400       .  A
C1041      C1046   1.400       .  A
C1041      H1051   1.085       .  S
C1042      C1043   1.413   1_655  A
C1042      C1047   1.476       .  S
C1043      C1044   1.404       .  A
C1043      C1048   1.518       .  S
C1044      C1045   1.403   1_455  A
C1044      H1049   1.083       .  S
C1045      C1046   1.418       .  A
C1046      C1050   1.520       .  S
C1047      C1052   1.411       .  A
C1047      C1056   1.400       .  A
C1048      F1064   1.382       .  S
C1048      F1065   1.382       .  S
C1048      F1066   1.385       .  S
C1050      F1061   1.384       .  S
C1050      F1062   1.383       .  S
C1050      F1063   1.381       .  S
C1052      C1053   1.400       .  A
C1052      C1057   1.524       .  S
C1053      C1054   1.410       .  A
C1053      H1058   1.082       .  S
C1054      C1055   1.426       .  A
C1055      C1056   1.410       .  A
C1055      C1059   1.520       .  S
C1056      H1060   1.083   1_655  S
C1057      F1070   1.384       .  S
C1057      F1071   1.382       .  S
C1057      F1072   1.382   1_655  S
C1059      F1067   1.383       .  S
C1059      F1068   1.384   1_655  S
C1059      F1069   1.385   1_655  S
C1073      C1074   1.402       .  A
C1073      C1078   1.403       .  A
C1073      H1083   1.083       .  S
C1074      C1075   1.417   1_455  A
C1074      C1079   1.482       .  S
C1075      C1076   1.405       .  A
C1075      C1080   1.519       .  S
C1076      C1077   1.401   1_655  A
C1076      H1081   1.083       .  S
C1077      C1078   1.413       .  A
C1078      C1082   1.518       .  S
C1079      C1084   1.413       .  A
C1079      C1088   1.401       .  A
C1080      F1096   1.382       .  S
C1080      F1097   1.383       .  S
C1080      F1098   1.385       .  S
C1082      F1093   1.383       .  S
C1082      F1094   1.385       .  S
C1082      F1095   1.382       .  S
C1084      C1085   1.399       .  A
C1084      C1089   1.522       .  S
C1085      C1086   1.409       .  A
C1085      H1090   1.082       .  S
C1086      C1087   1.426       .  A
C1087      C1088   1.410       .  A
C1087      C1091   1.521       .  S
C1088      H1092   1.083       .  S
C1089      F1102   1.385       .  S
C1089      F1103   1.382       .  S
C1089      F1104   1.383   1_455  S
C1091      F1099   1.383       .  S
C1091      F1100   1.384   1_455  S
C1091      F1101   1.385       .  S
C1105      C1106   1.403   1_565  A
C1105      C1110   1.408       .  A
C1105      H1115   1.084       .  S
C1106      C1107   1.420       .  A
C1106      C1111   1.494       .  S
C1107      C1108   1.412       .  A
C1107      C1112   1.520       .  S
C1108      C1109   1.404   1_545  A
C1108      H1113   1.083       .  S
C1109      C1110   1.419       .  A
C1110      C1114   1.517       .  S
C1111      C1116   1.414   1_545  A
C1111      C1120   1.398       .  A
C1112      F1128   1.382       .  S
C1112      F1129   1.381       .  S
C1112      F1130   1.385       .  S
C1114      F1125   1.384       .  S
C1114      F1126   1.382       .  S
C1114      F1127   1.382       .  S
C1116      C1117   1.413   1_565  A
C1116      C1121   1.518       .  S
C1117      C1118   1.412       .  A
C1117      H1122   1.082   1_545  S
C1118      C1119   1.434       .  A
C1119      C1120   1.410       .  A
C1119      C1123   1.525       .  S
C1120      H1124   1.083       .  S
C1121      F1134   1.385       .  S
C1121      F1135   1.382       .  S
C1121      F1136   1.381       .  S
C1123      F1131   1.385       .  S
C1123      F1132   1.384       .  S
C1123      F1133   1.383       .  S
C1137      C1138   1.400       .  A
C1137      C1142   1.403       .  A
C1137      H1147   1.085       .  S
C1138      C1139   1.415   1_565  A
C1138      C1143   1.484       .  S
C1139      C1140   1.408       .  A
C1139      C1144   1.518       .  S
C1140      C1141   1.404   1_545  A
C1140      H1145   1.083       .  S
C1141      C1142   1.419       .  A
C1142      C1146   1.518       .  S
C1143      C1148   1.415       .  A
C1143      C1152   1.398       .  A
C1144      F1160   1.382       .  S
C1144      F1161   1.383       .  S
C1144      F1162   1.384       .  S
C1146      F1157   1.383       .  S
C1146      F1158   1.384       .  S
C1146      F1159   1.381       .  S
C1148      C1149   1.404       .  A
C1148      C1153   1.521       .  S
C1149      C1150   1.408       .  A
C1149      H1154   1.082       .  S
C1150      C1151   1.429       .  A
C1151      C1152   1.410       .  A
C1151      C1155   1.521       .  S
C1152      H1156   1.083       .  S
C1153      F1166   1.385       .  S
C1153      F1167   1.382       .  S
C1153      F1168   1.382   1_565  S
C1155      F1163   1.385       .  S
C1155      F1164   1.383       .  S
C1155      F1165   1.383   1_565  S
C1169      C1170   1.404   1_556  A
C1169      C1174   1.410       .  A
C1169      H1179   1.083       .  S
C1170      C1171   1.419       .  A
C1170      C1175   1.489       .  S
C1171      C1172   1.408       .  A
C1171      C1176   1.520       .  S
C1172      C1173   1.403       .  A
C1172      H1177   1.083       .  S
C1173      C1174   1.416   1_554  A
C1174      C1178   1.516       .  S
C1175      C1180   1.416       .  A
C1175      C1184   1.402       .  A
C1176      F1192   1.382       .  S
C1176      F1193   1.380       .  S
C1176      F1194   1.385       .  S
C1178      F1189   1.385       .  S
C1178      F1190   1.383       .  S
C1178      F1191   1.382       .  S
C1180      C1181   1.413       .  A
C1180      C1185   1.518       .  S
C1181      C1182   1.409       .  A
C1181      H1186   1.083       .  S
C1182      C1183   1.420       .  A
C1183      C1184   1.405       .  A
C1183      C1187   1.520       .  S
C1184      H1188   1.084       .  S
C1185      F1198   1.385       .  S
C1185      F1199   1.382   1_554  S
C1185      F1200   1.381       .  S
C1187      F1195   1.385   1_554  S
C1187      F1196   1.384   1_554  S
C1187      F1197   1.383       .  S
C1201      C1202   1.402   1_556  A
C1201      C1206   1.404       .  A
C1201      H1211   1.085       .  S
C1202      C1203   1.418       .  A
C1202      C1207   1.486       .  S
C1203      C1204   1.409       .  A
C1203      C1208   1.520       .  S
C1204      C1205   1.404       .  A
C1204      H1209   1.083       .  S
C1205      C1206   1.417   1_554  A
C1206      C1210   1.518       .  S
C1207      C1212   1.415       .  A
C1207      C1216   1.399       .  A
C1208      F1224   1.382       .  S
C1208      F1225   1.381       .  S
C1208      F1226   1.385       .  S
C1210      F1221   1.384       .  S
C1210      F1222   1.383       .  S
C1210      F1223   1.381       .  S
C1212      C1213   1.410       .  A
C1212      C1217   1.518   1_554  S
C1213      C1214   1.407       .  A
C1213      H1218   1.083       .  S
C1214      C1215   1.427       .  A
C1215      C1216   1.405       .  A
C1215      C1219   1.523       .  S
C1216      H1220   1.083       .  S
C1217      F1230   1.385       .  S
C1217      F1231   1.382       .  S
C1217      F1232   1.381   1_556  S
C1219      F1227   1.383       .  S
C1219      F1228   1.383       .  S
C1219      F1229   1.385       .  S
C1233      C1234   1.399       .  A
C1233      C1238   1.408       .  A
C1233      H1243   1.084       .  S
C1234      C1235   1.412       .  A
C1234      C1239   1.489       .  S
C1235      C1236   1.411       .  A
C1235      C1240   1.518       .  S
C1236      C1237   1.412       .  A
C1236      H1241   1.082       .  S
C1237      C1238   1.430       .  A
C1238      C1242   1.522       .  S
C1239      C1244   1.419       .  A
C1239      C1248   1.403   1_545  A
C1240      F1256   1.382   1_545  S
C1240      F1257   1.382       .  S
C1240      F1258   1.384       .  S
C1242      F1253   1.383       .  S
C1242      F1254   1.385   1_545  S
C1242      F1255   1.383   1_545  S
C1244      C1245   1.409       .  A
C1244      C1249   1.520       .  S
C1245      C1246   1.403       .  A
C1245      H1250   1.083       .  S
C1246      C1247   1.416   1_545  A
C1247      C1248   1.410       .  A
C1247      C1251   1.517       .  S
C1248      H1252   1.083       .  S
C1249      F1262   1.385       .  S
C1249      F1263   1.382       .  S
C1249      F1264   1.382       .  S
C1251      F1259   1.384       .  S
C1251      F1260   1.383       .  S
C1251      F1261   1.383       .  S
C1265      C1266   1.400   1_565  A
C1265      C1270   1.404       .  A
C1265      H1275   1.085       .  S
C1266      C1267   1.417       .  A
C1266      C1271   1.483       .  S
C1267      C1268   1.406       .  A
C1267      C1272   1.520       .  S
C1268      C1269   1.403   1_545  A
C1268      H1273   1.083       .  S
C1269      C1270   1.419       .  A
C1270      C1274   1.518       .  S
C1271      C1276   1.411       .  A
C1271      C1280   1.397       .  A
C1272      F1288   1.382       .  S
C1272      F1289   1.382       .  S
C1272      F1290   1.385       .  S
C1274      F1285   1.383       .  S
C1274      F1286   1.383       .  S
C1274      F1287   1.381       .  S
C1276      C1277   1.407       .  A
C1276      C1281   1.519   1_545  S
C1277      C1278   1.411       .  A
C1277      H1282   1.082       .  S
C1278      C1279   1.431       .  A
C1279      C1280   1.408       .  A
C1279      C1283   1.522       .  S
C1280      H1284   1.083       .  S
C1281      F1294   1.384       .  S
C1281      F1295   1.382       .  S
C1281      F1296   1.382   1_565  S
C1283      F1291   1.383   1_545  S
C1283      F1292   1.383       .  S
C1283      F1293   1.385       .  S
C1297      C1298   1.397       .  A
C1297      C1302   1.406       .  A
C1297      H1307   1.083       .  S
C1298      C1299   1.413       .  A
C1298      C1303   1.482       .  S
C1299      C1300   1.410       .  A
C1299      C1304   1.520       .  S
C1300      C1301   1.411       .  A
C1300      H1305   1.082       .  S
C1301      C1302   1.429       .  A
C1302      C1306   1.522       .  S
C1303      C1308   1.415       .  A
C1303      C1312   1.401   1_556  A
C1304      F1320   1.383       .  S
C1304      F1321   1.381       .  S
C1304      F1322   1.384       .  S
C1306      F1317   1.383       .  S
C1306      F1318   1.385   1_556  S
C1306      F1319   1.384   1_556  S
C1308      C1309   1.406       .  A
C1308      C1313   1.520       .  S
C1309      C1310   1.405       .  A
C1309      H1314   1.083       .  S
C1310      C1311   1.421   1_556  A
C1311      C1312   1.405       .  A
C1311      C1315   1.520       .  S
C1312      H1316   1.085       .  S
C1313      F1326   1.384       .  S
C1313      F1327   1.383       .  S
C1313      F1328   1.381       .  S
C1315      F1323   1.384       .  S
C1315      F1324   1.381       .  S
C1315      F1325   1.383       .  S
C1329      C1330   1.404       .  A
C1329      C1334   1.410       .  A
C1329      H1339   1.083       .  S
C1330      C1331   1.418   1_556  A
C1330      C1335   1.493       .  S
C1331      C1332   1.410       .  A
C1331      C1336   1.518       .  S
C1332      C1333   1.403   1_554  A
C1332      H1337   1.083       .  S
C1333      C1334   1.416       .  A
C1334      C1338   1.518       .  S
C1335      C1340   1.414       .  A
C1335      C1344   1.402       .  A
C1336      F1352   1.382       .  S
C1336      F1353   1.383       .  S
C1336      F1354   1.384       .  S
C1338      F1349   1.384       .  S
C1338      F1350   1.382       .  S
C1338      F1351   1.383       .  S
C1340      C1341   1.406       .  A
C1340      C1345   1.522       .  S
C1341      C1342   1.413       .  A
C1341      H1346   1.081       .  S
C1342      C1343   1.429       .  A
C1343      C1344   1.415       .  A
C1343      C1347   1.519   1_556  S
C1344      H1348   1.083   1_556  S
C1345      F1358   1.385       .  S
C1345      F1359   1.382       .  S
C1345      F1360   1.382       .  S
C1347      F1355   1.385       .  S
C1347      F1356   1.383   1_554  S
C1347      F1357   1.383       .  S
C1361      C1362   1.399       .  A
C1361      C1366   1.408       .  A
C1361      H1371   1.083       .  S
C1362      C1363   1.413       .  A
C1362      C1367   1.483       .  S
C1363      C1364   1.404       .  A
C1363      C1368   1.522       .  S
C1364      C1365   1.411       .  A
C1364      H1369   1.082       .  S
C1365      C1366   1.428       .  A
C1366      C1370   1.521       .  S
C1367      C1372   1.416       .  A
C1367      C1376   1.401       .  A
C1368      F1384   1.382       .  S
C1368      F1385   1.383       .  S
C1368      F1386   1.385       .  S
C1370      F1381   1.385       .  S
C1370      F1382   1.382       .  S
C1370      F1383   1.384       .  S
C1372      C1373   1.405       .  A
C1372      C1377   1.519       .  S
C1373      C1374   1.402       .  A
C1373      H1378   1.083       .  S
C1374      C1375   1.418       .  A
C1375      C1376   1.402       .  A
C1375      C1379   1.520       .  S
C1376      H1380   1.085       .  S
C1377      F1390   1.384       .  S
C1377      F1391   1.382       .  S
C1377      F1392   1.383       .  S
C1379      F1387   1.383       .  S
C1379      F1388   1.381       .  S
C1379      F1389   1.383       .  S
C1393      C1394   1.401   1_545  A
C1393      C1398   1.415   1_545  A
C1393      H1403   1.083       .  S
C1394      C1395   1.414       .  A
C1394      C1399   1.493       .  S
C1395      C1396   1.408       .  A
C1395      C1400   1.522       .  S
C1396      C1397   1.412       .  A
C1396      H1401   1.082       .  S
C1397      C1398   1.430       .  A
C1398      C1402   1.521   1_565  S
C1399      C1404   1.416   1_565  A
C1399      C1408   1.405       .  A
C1400      F1416   1.382       .  S
C1400      F1417   1.382       .  S
C1400      F1418   1.384       .  S
C1402      F1413   1.385       .  S
C1402      F1414   1.383   1_545  S
C1402      F1415   1.384       .  S
C1404      C1405   1.409       .  A
C1404      C1409   1.519       .  S
C1405      C1406   1.404   1_545  A
C1405      H1410   1.083       .  S
C1406      C1407   1.416       .  A
C1407      C1408   1.411       .  A
C1407      C1411   1.518       .  S
C1408      H1412   1.083       .  S
C1409      F1422   1.384       .  S
C1409      F1423   1.382       .  S
C1409      F1424   1.382       .  S
C1411      F1419   1.384       .  S
C1411      F1420   1.382       .  S
C1411      F1421   1.383       .  S
C1425      C1426   1.401       .  A
C1425      C1430   1.403       .  A
C1425      H1435   1.085       .  S
C1426      C1427   1.416       .  A
C1426      C1431   1.481       .  S
C1427      C1428   1.405       .  A
C1427      C1432   1.520       .  S
C1428      C1429   1.403       .  A
C1428      H1433   1.083       .  S
C1429      C1430   1.417       .  A
C1430      C1434   1.520       .  S
C1431      C1436   1.414       .  A
C1431      C1440   1.403       .  A
C1432      F1448   1.382       .  S
C1432      F1449   1.382       .  S
C1432      F1450   1.385       .  S
C1434      F1445   1.384       .  S
C1434      F1446   1.382       .  S
C1434      F1447   1.381       .  S
C1436      C1437   1.404       .  A
C1436      C1441   1.522       .  S
C1437      C1438   1.407       .  A
C1437      H1442   1.083       .  S
C1438      C1439   1.419       .  A
C1439      C1440   1.409       .  A
C1439      C1443   1.518       .  S
C1440      H1444   1.083       .  S
C1441      F1454   1.384       .  S
C1441      F1455   1.382       .  S
C1441      F1456   1.382       .  S
C1443      F1451   1.385       .  S
C1443      F1452   1.382       .  S
C1443      F1453   1.384       .  S
C1457      C1458   1.399       .  A
C1457      C1462   1.409       .  A
C1457      H1467   1.083       .  S
C1458      C1459   1.413       .  A
C1458      C1463   1.487       .  S
C1459      C1460   1.408       .  A
C1459      C1464   1.519   1_565  S
C1460      C1461   1.410       .  A
C1460      H1465   1.082       .  S
C1461      C1462   1.429       .  A
C1462      C1466   1.523       .  S
C1463      C1468   1.418       .  A
C1463      C1472   1.402   1_565  A
C1464      F1480   1.382       .  S
C1464      F1481   1.382   1_545  S
C1464      F1482   1.384       .  S
C1466      F1477   1.384       .  S
C1466      F1478   1.385       .  S
C1466      F1479   1.383       .  S
C1468      C1469   1.409       .  A
C1468      C1473   1.519       .  S
C1469      C1470   1.403       .  A
C1469      H1474   1.083       .  S
C1470      C1471   1.416   1_565  A
C1471      C1472   1.407       .  A
C1471      C1475   1.517       .  S
C1472      H1476   1.083       .  S
C1473      F1486   1.385       .  S
C1473      F1487   1.382       .  S
C1473      F1488   1.382       .  S
C1475      F1483   1.385       .  S
C1475      F1484   1.382       .  S
C1475      F1485   1.382       .  S
C1489      C1490   1.402       .  A
C1489      C1494   1.415       .  A
C1489      H1499   1.083       .  S
C1490      C1491   1.416       .  A
C1490      C1495   1.493       .  S
C1491      C1492   1.409       .  A
C1491      C1496   1.522       .  S
C1492      C1493   1.409       .  A
C1492      H1497   1.082       .  S
C1493      C1494   1.427       .  A
C1494      C1498   1.520       .  S
C1495      C1500   1.417       .  A
C1495      C1504   1.401       .  A
C1496      F1512   1.382       .  S
C1496      F1513   1.381       .  S
C1496      F1514   1.384       .  S
C1498      F1509   1.385       .  S
C1498      F1510   1.384       .  S
C1498      F1511   1.383       .  S
C1500      C1501   1.415       .  A
C1500      C1505   1.519       .  S
C1501      C1502   1.407       .  A
C1501      H1506   1.083       .  S
C1502      C1503   1.419       .  A
C1503      C1504   1.405       .  A
C1503      C1507   1.517       .  S
C1504      H1508   1.085       .  S
C1505      F1518   1.385       .  S
C1505      F1519   1.383       .  S
C1505      F1520   1.381       .  S
C1507      F1515   1.384       .  S
C1507      F1516   1.382       .  S
C1507      F1517   1.383       .  S
C1521      C1522   1.403       .  A
C1521      C1526   1.409       .  A
C1521      H1531   1.083       .  S
C1522      C1523   1.417       .  A
C1522      C1527   1.492       .  S
C1523      C1524   1.410       .  A
C1523      C1528   1.519       .  S
C1524      C1525   1.404       .  A
C1524      H1529   1.083       .  S
C1525      C1526   1.418       .  A
C1526      C1530   1.519       .  S
C1527      C1532   1.415       .  A
C1527      C1536   1.400       .  A
C1528      F1544   1.382       .  S
C1528      F1545   1.383       .  S
C1528      F1546   1.384       .  S
C1530      F1541   1.383       .  S
C1530      F1542   1.384       .  S
C1530      F1543   1.381       .  S
C1532      C1533   1.407       .  A
C1532      C1537   1.522       .  S
C1533      C1534   1.411       .  A
C1533      H1538   1.082       .  S
C1534      C1535   1.429       .  A
C1535      C1536   1.412       .  A
C1535      C1539   1.521       .  S
C1536      H1540   1.083       .  S
C1537      F1550   1.385       .  S
C1537      F1551   1.382       .  S
C1537      F1552   1.382       .  S
C1539      F1547   1.383       .  S
C1539      F1548   1.384       .  S
C1539      F1549   1.385       .  S
C1553      C1554   1.402       .  A
C1553      C1558   1.405       .  A
C1553      H1563   1.083       .  S
C1554      C1555   1.414       .  A
C1554      C1559   1.480       .  S
C1555      C1556   1.406       .  A
C1555      C1560   1.518       .  S
C1556      C1557   1.403       .  A
C1556      H1561   1.083       .  S
C1557      C1558   1.414       .  A
C1558      C1562   1.518       .  S
C1559      C1564   1.412       .  A
C1559      C1568   1.400       .  A
C1560      F1576   1.383       .  S
C1560      F1577   1.382       .  S
C1560      F1578   1.384       .  S
C1562      F1573   1.383       .  S
C1562      F1574   1.384       .  S
C1562      F1575   1.383       .  S
C1564      C1565   1.400       .  A
C1564      C1569   1.524       .  S
C1565      C1566   1.412       .  A
C1565      H1570   1.081       .  S
C1566      C1567   1.429       .  A
C1567      C1568   1.412       .  A
C1567      C1571   1.520       .  S
C1568      H1572   1.083       .  S
C1569      F1582   1.385       .  S
C1569      F1583   1.382       .  S
C1569      F1584   1.382       .  S
C1571      F1579   1.383       .  S
C1571      F1580   1.384       .  S
C1571      F1581   1.385       .  S
C1585      C1586   1.400       .  A
C1585      C1590   1.409       .  A
C1585      H1595   1.083       .  S
C1586      C1587   1.415       .  A
C1586      C1591   1.483       .  S
C1587      C1588   1.405       .  A
C1587      C1592   1.521       .  S
C1588      C1589   1.406       .  A
C1588      H1593   1.083       .  S
C1589      C1590   1.424       .  A
C1590      C1594   1.520       .  S
C1591      C1596   1.415       .  A
C1591      C1600   1.400       .  A
C1592      F1608   1.382       .  S
C1592      F1609   1.381       .  S
C1592      F1610   1.385       .  S
C1594      F1605   1.383       .  S
C1594      F1606   1.385       .  S
C1594      F1607   1.384       .  S
C1596      C1597   1.410       .  A
C1596      C1601   1.518       .  S
C1597      C1598   1.405       .  A
C1597      H1602   1.083       .  S
C1598      C1599   1.419       .  A
C1599      C1600   1.401       .  A
C1599      C1603   1.519       .  S
C1600      H1604   1.085       .  S
C1601      F1614   1.384       .  S
C1601      F1615   1.382       .  S
C1601      F1616   1.382       .  S
C1603      F1611   1.383       .  S
C1603      F1612   1.382       .  S
C1603      F1613   1.383       .  S
C1617      C1618   1.401   1_554  A
C1617      C1622   1.408       .  A
C1617      H1627   1.083       .  S
C1618      C1619   1.415       .  A
C1618      C1623   1.484   1_556  S
C1619      C1620   1.407       .  A
C1619      C1624   1.519       .  S
C1620      C1621   1.405       .  A
C1620      H1625   1.083       .  S
C1621      C1622   1.424   1_556  A
C1622      C1626   1.522       .  S
C1623      C1628   1.416   1_554  A
C1623      C1632   1.400       .  A
C1624      F1640   1.382       .  S
C1624      F1641   1.382       .  S
C1624      F1642   1.384       .  S
C1626      F1637   1.382       .  S
C1626      F1638   1.385       .  S
C1626      F1639   1.384       .  S
C1628      C1629   1.408       .  A
C1628      C1633   1.520       .  S
C1629      C1630   1.406   1_556  A
C1629      H1634   1.083       .  S
C1630      C1631   1.422       .  A
C1631      C1632   1.406       .  A
C1631      C1635   1.518       .  S
C1632      H1636   1.085       .  S
C1633      F1646   1.384       .  S
C1633      F1647   1.383       .  S
C1633      F1648   1.382       .  S
C1635      F1643   1.384       .  S
C1635      F1644   1.381       .  S
C1635      F1645   1.383       .  S
C1649      C1650   1.405       .  A
C1649      C1654   1.409       .  A
C1649      H1659   1.083       .  S
C1650      C1651   1.418       .  A
C1650      C1655   1.490       .  S
C1651      C1652   1.407       .  A
C1651      C1656   1.520       .  S
C1652      C1653   1.402       .  A
C1652      H1657   1.083       .  S
C1653      C1654   1.415       .  A
C1654      C1658   1.518       .  S
C1655      C1660   1.413       .  A
C1655      C1664   1.398       .  A
C1656      F1672   1.382       .  S
C1656      F1673   1.381       .  S
C1656      F1674   1.385       .  S
C1658      F1669   1.385       .  S
C1658      F1670   1.383       .  S
C1658      F1671   1.382       .  S
C1660      C1661   1.410       .  A
C1660      C1665   1.520       .  S
C1661      C1662   1.412       .  A
C1661      H1666   1.082       .  S
C1662      C1663   1.433       .  A
C1663      C1664   1.410       .  A
C1663      C1667   1.524       .  S
C1664      H1668   1.083       .  S
C1665      F1678   1.384       .  S
C1665      F1679   1.382       .  S
C1665      F1680   1.381       .  S
C1667      F1675   1.383       .  S
C1667      F1676   1.384       .  S
C1667      F1677   1.385       .  S
C1681      C1682   1.403       .  A
C1681      C1686   1.407       .  A
C1681      H1691   1.083       .  S
C1682      C1683   1.420       .  A
C1682      C1687   1.482       .  S
C1683      C1684   1.405       .  A
C1683      C1688   1.523       .  S
C1684      C1685   1.402       .  A
C1684      H1689   1.083       .  S
C1685      C1686   1.415       .  A
C1686      C1690   1.519       .  S
C1687      C1692   1.414       .  A
C1687      C1696   1.400       .  A
C1688      F1704   1.382       .  S
C1688      F1705   1.379       .  S
C1688      F1706   1.385       .  S
C1690      F1701   1.384       .  S
C1690      F1702   1.383       .  S
C1690      F1703   1.381       .  S
C1692      C1693   1.412       .  A
C1692      C1697   1.520       .  S
C1693      C1694   1.410       .  A
C1693      H1698   1.083       .  S
C1694      C1695   1.418       .  A
C1695      C1696   1.402       .  A
C1695      C1699   1.518       .  S
C1696      H1700   1.084       .  S
C1697      F1710   1.385       .  S
C1697      F1711   1.382       .  S
C1697      F1712   1.380       .  S
C1699      F1707   1.385       .  S
C1699      F1708   1.384       .  S
C1699      F1709   1.382       .  S
C1713      C1714   1.399       .  A
C1713      C1718   1.403       .  A
C1713      H1723   1.084   1_556  S
C1714      C1715   1.414       .  A
C1714      C1719   1.486       .  S
C1715      C1716   1.414       .  A
C1715      C1720   1.520       .  S
C1716      C1717   1.411       .  A
C1716      H1721   1.083       .  S
C1717      C1718   1.423       .  A
C1718      C1722   1.520   1_556  S
C1719      C1724   1.420       .  A
C1719      C1728   1.404   1_556  A
C1720      F1736   1.383   1_556  S
C1720      F1737   1.380       .  S
C1720      F1738   1.385       .  S
C1722      F1733   1.383   1_554  S
C1722      F1734   1.385       .  S
C1722      F1735   1.384       .  S
C1724      C1725   1.408       .  A
C1724      C1729   1.523       .  S
C1725      C1726   1.402       .  A
C1725      H1730   1.083       .  S
C1726      C1727   1.416   1_556  A
C1727      C1728   1.409       .  A
C1727      C1731   1.518       .  S
C1728      H1732   1.083       .  S
C1729      F1742   1.384       .  S
C1729      F1743   1.382       .  S
C1729      F1744   1.380       .  S
C1731      F1739   1.384       .  S
C1731      F1740   1.382       .  S
C1731      F1741   1.384       .  S
C1745      C1746   1.401       .  A
C1745      C1750   1.406       .  A
C1745      H1755   1.085       .  S
C1746      C1747   1.416       .  A
C1746      C1751   1.485       .  S
C1747      C1748   1.406       .  A
C1747      C1752   1.521       .  S
C1748      C1749   1.406       .  A
C1748      H1753   1.083       .  S
C1749      C1750   1.420       .  A
C1750      C1754   1.517       .  S
C1751      C1756   1.412       .  A
C1751      C1760   1.400       .  A
C1752      F1768   1.383       .  S
C1752      F1769   1.382       .  S
C1752      F1770   1.384       .  S
C1754      F1765   1.383       .  S
C1754      F1766   1.383       .  S
C1754      F1767   1.380       .  S
C1756      C1757   1.408       .  A
C1756      C1761   1.518       .  S
C1757      C1758   1.408       .  A
C1757      H1762   1.083       .  S
C1758      C1759   1.425       .  A
C1759      C1760   1.407       .  A
C1759      C1763   1.522       .  S
C1760      H1764   1.084       .  S
C1761      F1774   1.384       .  S
C1761      F1775   1.383       .  S
C1761      F1776   1.382       .  S
C1763      F1771   1.385       .  S
C1763      F1772   1.384       .  S
C1763      F1773   1.383       .  S
C1777      C1778   1.401       .  A
C1777      C1782   1.406       .  A
C1777      H1787   1.083       .  S
C1778      C1779   1.418       .  A
C1778      C1783   1.484       .  S
C1779      C1780   1.407       .  A
C1779      C1784   1.520       .  S
C1780      C1781   1.402       .  A
C1780      H1785   1.083       .  S
C1781      C1782   1.416       .  A
C1782      C1786   1.518       .  S
C1783      C1788   1.410       .  A
C1783      C1792   1.399       .  A
C1784      F1800   1.382       .  S
C1784      F1801   1.382       .  S
C1784      F1802   1.385       .  S
C1786      F1797   1.382       .  S
C1786      F1798   1.384       .  S
C1786      F1799   1.382       .  S
C1788      C1789   1.409       .  A
C1788      C1793   1.518       .  S
C1789      C1790   1.412       .  A
C1789      H1794   1.082       .  S
C1790      C1791   1.428       .  A
C1791      C1792   1.407       .  A
C1791      C1795   1.522       .  S
C1792      H1796   1.084       .  S
C1793      F1806   1.384       .  S
C1793      F1807   1.383       .  S
C1793      F1808   1.382       .  S
C1795      F1803   1.385       .  S
C1795      F1804   1.384       .  S
C1795      F1805   1.383       .  S
C1809      C1810   1.398       .  A
C1809      C1814   1.407       .  A
C1809      H1819   1.084       .  S
C1810      C1811   1.411       .  A
C1810      C1815   1.482       .  S
C1811      C1812   1.406       .  A
C1811      C1816   1.519       .  S
C1812      C1813   1.409       .  A
C1812      H1817   1.082       .  S
C1813      C1814   1.428       .  A
C1814      C1818   1.522       .  S
C1815      C1820   1.417       .  A
C1815      C1824   1.403       .  A
C1816      F1832   1.383       .  S
C1816      F1833   1.382       .  S
C1816      F1834   1.384       .  S
C1818      F1829   1.383       .  S
C1818      F1830   1.385       .  S
C1818      F1831   1.384       .  S
C1820      C1821   1.403       .  A
C1820      C1825   1.521       .  S
C1821      C1822   1.402       .  A
C1821      H1826   1.083       .  S
C1822      C1823   1.417       .  A
C1823      C1824   1.409       .  A
C1823      C1827   1.518       .  S
C1824      H1828   1.083       .  S
C1825      F1838   1.385       .  S
C1825      F1839   1.383       .  S
C1825      F1840   1.381       .  S
C1827      F1835   1.383       .  S
C1827      F1836   1.381       .  S
C1827      F1837   1.384       .  S
C1841      C1842   1.400       .  A
C1841      C1846   1.399       .  A
C1841      H1851   1.085       .  S
C1842      C1843   1.415       .  A
C1842      C1847   1.476       .  S
C1843      C1844   1.403       .  A
C1843      C1848   1.519       .  S
C1844      C1845   1.402       .  A
C1844      H1849   1.083       .  S
C1845      C1846   1.416       .  A
C1846      C1850   1.519       .  S
C1847      C1852   1.412       .  A
C1847      C1856   1.397       .  A
C1848      F1864   1.382       .  S
C1848      F1865   1.382       .  S
C1848      F1866   1.385       .  S
C1850      F1861   1.383       .  S
C1850      F1862   1.383       .  S
C1850      F1863   1.381       .  S
C1852      C1853   1.404       .  A
C1852      C1857   1.520       .  S
C1853      C1854   1.408       .  A
C1853      H1858   1.083       .  S
C1854      C1855   1.428       .  A
C1855      C1856   1.404       .  A
C1855      C1859   1.523       .  S
C1856      H1860   1.083       .  S
C1857      F1870   1.384       .  S
C1857      F1871   1.382       .  S
C1857      F1872   1.383       .  S
C1859      F1867   1.385       .  S
C1859      F1868   1.383       .  S
C1859      F1869   1.384       .  S
C1873      C1874   1.402       .  A
C1873      C1878   1.405       .  A
C1873      H1883   1.084       .  S
C1874      C1875   1.419       .  A
C1874      C1879   1.492       .  S
C1875      C1876   1.410       .  A
C1875      C1880   1.518       .  S
C1876      C1877   1.403       .  A
C1876      H1881   1.083       .  S
C1877      C1878   1.419       .  A
C1878      C1882   1.517       .  S
C1879      C1884   1.416       .  A
C1879      C1888   1.399       .  A
C1880      F1896   1.381       .  S
C1880      F1897   1.383       .  S
C1880      F1898   1.384       .  S
C1882      F1893   1.383       .  S
C1882      F1894   1.383       .  S
C1882      F1895   1.383       .  S
C1884      C1885   1.415       .  A
C1884      C1889   1.518       .  S
C1885      C1886   1.409       .  A
C1885      H1890   1.083       .  S
C1886      C1887   1.425       .  A
C1887      C1888   1.405       .  A
C1887      C1891   1.523       .  S
C1888      H1892   1.084       .  S
C1889      F1902   1.384       .  S
C1889      F1903   1.382       .  S
C1889      F1904   1.382       .  S
C1891      F1899   1.385       .  S
C1891      F1900   1.383       .  S
C1891      F1901   1.384       .  S
C1905      C1906   1.400       .  A
C1905      C1910   1.407       .  A
C1905      H1915   1.084       .  S
C1906      C1907   1.414       .  A
C1906      C1911   1.487       .  S
C1907      C1908   1.411       .  A
C1907      C1912   1.519       .  S
C1908      C1909   1.410       .  A
C1908      H1913   1.083       .  S
C1909      C1910   1.423       .  A
C1910      C1914   1.520       .  S
C1911      C1916   1.417       .  A
C1911      C1920   1.401       .  A
C1912      F1928   1.383       .  S
C1912      F1929   1.382       .  S
C1912      F1930   1.384       .  S
C1914      F1925   1.382       .  S
C1914      F1926   1.385       .  S
C1914      F1927   1.384       .  S
C1916      C1917   1.407       .  A
C1916      C1921   1.520       .  S
C1917      C1918   1.404       .  A
C1917      H1922   1.083       .  S
C1918      C1919   1.420       .  A
C1919      C1920   1.407       .  A
C1919      C1923   1.518       .  S
C1920      H1924   1.085       .  S
C1921      F1934   1.385       .  S
C1921      F1935   1.382       .  S
C1921      F1936   1.381       .  S
C1923      F1931   1.383       .  S
C1923      F1932   1.381       .  S
C1923      F1933   1.383       .  S
C1937      C1938   1.401       .  A
C1937      C1942   1.404       .  A
C1937      H1947   1.085       .  S
C1938      C1939   1.416       .  A
C1938      C1943   1.488       .  S
C1939      C1940   1.409       .  A
C1939      C1944   1.517       .  S
C1940      C1941   1.405       .  A
C1940      H1945   1.083       .  S
C1941      C1942   1.419       .  A
C1942      C1946   1.519       .  S
C1943      C1948   1.413       .  A
C1943      C1952   1.400       .  A
C1944      F1960   1.382       .  S
C1944      F1961   1.382       .  S
C1944      F1962   1.385       .  S
C1946      F1957   1.383       .  S
C1946      F1958   1.384       .  S
C1946      F1959   1.381       .  S
C1948      C1949   1.406       .  A
C1948      C1953   1.522       .  S
C1949      C1950   1.413       .  A
C1949      H1954   1.082       .  S
C1950      C1951   1.429       .  A
C1951      C1952   1.413       .  A
C1951      C1955   1.520       .  S
C1952      H1956   1.083       .  S
C1953      F1966   1.384       .  S
C1953      F1967   1.382       .  S
C1953      F1968   1.383       .  S
C1955      F1963   1.383       .  S
C1955      F1964   1.384       .  S
C1955      F1965   1.385       .  S
C1969      C1970   1.401       .  A
C1969      C1974   1.404       .  A
C1969      H1979   1.085       .  S
C1970      C1971   1.415       .  A
C1970      C1975   1.484       .  S
C1971      C1972   1.406       .  A
C1971      C1976   1.518       .  S
C1972      C1973   1.403       .  A
C1972      H1977   1.083       .  S
C1973      C1974   1.420       .  A
C1974      C1978   1.519       .  S
C1975      C1980   1.414       .  A
C1975      C1984   1.401       .  A
C1976      F1992   1.382       .  S
C1976      F1993   1.382       .  S
C1976      F1994   1.385       .  S
C1978      F1989   1.384       .  S
C1978      F1990   1.383       .  S
C1978      F1991   1.381       .  S
C1980      C1981   1.404       .  A
C1980      C1985   1.522       .  S
C1981      C1982   1.408       .  A
C1981      H1986   1.083       .  S
C1982      C1983   1.423       .  A
C1983      C1984   1.410       .  A
C1983      C1987   1.519       .  S
C1984      H1988   1.083       .  S
C1985      F1998   1.384       .  S
C1985      F1999   1.382       .  S
C1985      F2000   1.383       .  S
C1987      F1995   1.383       .  S
C1987      F1996   1.384       .  S
C1987      F1997   1.384       .  S
C2001      C2002   1.400       .  A
C2001      C2006   1.402       .  A
C2001      H2011   1.085       .  S
C2002      C2003   1.413       .  A
C2002      C2007   1.479       .  S
C2003      C2004   1.406       .  A
C2003      C2008   1.518       .  S
C2004      C2005   1.404       .  A
C2004      H2009   1.083       .  S
C2005      C2006   1.418       .  A
C2006      C2010   1.517       .  S
C2007      C2012   1.414       .  A
C2007      C2016   1.399       .  A
C2008      F2024   1.383       .  S
C2008      F2025   1.381       .  S
C2008      F2026   1.385       .  S
C2010      F2021   1.383       .  S
C2010      F2022   1.384       .  S
C2010      F2023   1.382       .  S
C2012      C2013   1.404       .  A
C2012      C2017   1.524       .  S
C2013      C2014   1.409       .  A
C2013      H2018   1.082       .  S
C2014      C2015   1.426       .  A
C2015      C2016   1.409       .  A
C2015      C2019   1.520       .  S
C2016      H2020   1.083       .  S
C2017      F2030   1.384       .  S
C2017      F2031   1.382       .  S
C2017      F2032   1.381       .  S
C2019      F2027   1.385       .  S
C2019      F2028   1.384       .  S
C2019      F2029   1.383       .  S
C2033      C2034   1.404       .  A
C2033      C2038   1.410       .  A
C2033      H2043   1.083       .  S
C2034      C2035   1.419       .  A
C2034      C2039   1.494       .  S
C2035      C2036   1.409       .  A
C2035      C2040   1.519       .  S
C2036      C2037   1.403       .  A
C2036      H2041   1.083       .  S
C2037      C2038   1.417       .  A
C2038      C2042   1.518       .  S
C2039      C2044   1.413       .  A
C2039      C2048   1.400       .  A
C2040      F2056   1.382       .  S
C2040      F2057   1.382       .  S
C2040      F2058   1.385       .  S
C2042      F2053   1.384       .  S
C2042      F2054   1.381       .  S
C2042      F2055   1.383       .  S
C2044      C2045   1.411       .  A
C2044      C2049   1.518       .  S
C2045      C2046   1.413       .  A
C2045      H2050   1.082       .  S
C2046      C2047   1.433       .  A
C2047      C2048   1.411       .  A
C2047      C2051   1.524       .  S
C2048      H2052   1.083       .  S
C2049      F2062   1.385       .  S
C2049      F2063   1.382       .  S
C2049      F2064   1.382       .  S
C2051      F2059   1.385       .  S
C2051      F2060   1.383       .  S
C2051      F2061   1.383       .  S
C2065      C2066   1.403       .  A
C2065      C2070   1.406       .  A
C2065      H2075   1.083       .  S
C2066      C2067   1.417       .  A
C2066      C2071   1.488       .  S
C2067      C2068   1.411       .  A
C2067      C2072   1.519       .  S
C2068      C2069   1.404       .  A
C2068      H2073   1.083       .  S
C2069      C2070   1.415       .  A
C2070      C2074   1.518       .  S
C2071      C2076   1.413       .  A
C2071      C2080   1.402       .  A
C2072      F2088   1.382       .  S
C2072      F2089   1.382       .  S
C2072      F2090   1.385       .  S
C2074      F2085   1.383       .  S
C2074      F2086   1.385       .  S
C2074      F2087   1.382       .  S
C2076      C2077   1.405       .  A
C2076      C2081   1.523       .  S
C2077      C2078   1.413       .  A
C2077      H2082   1.081       .  S
C2078      C2079   1.428       .  A
C2079      C2080   1.414       .  A
C2079      C2083   1.520       .  S
C2080      H2084   1.083       .  S
C2081      F2094   1.385       .  S
C2081      F2095   1.382       .  S
C2081      F2096   1.381       .  S
C2083      F2091   1.383       .  S
C2083      F2092   1.383       .  S
C2083      F2093   1.385       .  S
C2097      C2098   1.402       .  A
C2097      C2102   1.403       .  A
C2097      H2107   1.083       .  S
C2098      C2099   1.416       .  A
C2098      C2103   1.477       .  S
C2099      C2100   1.403       .  A
C2099      C2104   1.520       .  S
C2100      C2101   1.401       .  A
C2100      H2105   1.083       .  S
C2101      C2102   1.415       .  A
C2102      C2106   1.521       .  S
C2103      C2108   1.415       .  A
C2103      C2112   1.402       .  A
C2104      F2120   1.382       .  S
C2104      F2121   1.383       .  S
C2104      F2122   1.384       .  S
C2106      F2117   1.384       .  S
C2106      F2118   1.381       .  S
C2106      F2119   1.383       .  S
C2108      C2109   1.401       .  A
C2108      C2113   1.522       .  S
C2109      C2110   1.404       .  A
C2109      H2114   1.083       .  S
C2110      C2111   1.417       .  A
C2111      C2112   1.407       .  A
C2111      C2115   1.518       .  S
C2112      H2116   1.083       .  S
C2113      F2126   1.384       .  S
C2113      F2127   1.382       .  S
C2113      F2128   1.383       .  S
C2115      F2123   1.385       .  S
C2115      F2124   1.382       .  S
C2115      F2125   1.384       .  S
