geometry optimzed in LAMMPS
_audit_creation_date              2020-11-30 
_audit_creation_method            'lammps2cif' 
_symmetry_space_group_name_H-M    'P1' 
_symmetry_Int_Tables_number       1 
_symmetry_cell_setting            triclinic 
loop_ 
_symmetry_equiv_pos_as_xyz 
  x,y,z 
_cell_length_a                    58.83538853 
_cell_length_b                    58.982635115265616 
_cell_length_c                    58.95391816722344 
_cell_angle_alpha                 89.95582781341848 
_cell_angle_beta                  90.01447912459723 
_cell_angle_gamma                 90.07631875859799 
loop_ 
_atom_site_label 
_atom_site_type_symbol 
_atom_site_fract_x 
_atom_site_fract_y 
_atom_site_fract_z 
_atom_site_charge 
N1          N  0.66702630  0.12573966  0.80436368    -0.27200
N2          N  0.65822599  0.14588773  0.79994793    -0.35000
C3          C  0.65428991  0.14753934  0.77749494     0.01200
C4          C  0.66126759  0.12761319  0.76729455     0.07200
C5          C  0.66939131  0.11423937  0.78479186    -0.05900
H6          H  0.64811947  0.16262382  0.76906455     0.07900
H7          H  0.67681773  0.09752921  0.78336022     0.09100
Cu8        Cu  0.65546104  0.17136618  0.82421697     0.44200
Cu9        Cu  0.67581142  0.11518049  0.83685058     0.42000
Cu10       Cu  0.68186833  0.15970514  0.87879882     0.43900
N11         N  0.66088871  0.19588031  0.84904581    -0.34600
N12         N  0.67187755  0.19196229  0.86824109    -0.28800
C13         C  0.67533310  0.21183472  0.87896639    -0.04900
C14         C  0.66576037  0.22899763  0.86608640     0.07300
C15         C  0.65669149  0.21825425  0.84729814     0.01100
H16         H  0.68457274  0.21371224  0.89472545     0.08700
H17         H  0.64897491  0.22627810  0.83270021     0.07800
N18         N  0.68521673  0.12529851  0.88621579    -0.36000
N19         N  0.68208968  0.10909150  0.87101750    -0.28200
C20         C  0.68231103  0.08885656  0.88157878    -0.03400
C21         C  0.68605283  0.09246707  0.90444550     0.05200
C22         C  0.68789794  0.11573038  0.90680687     0.03300
H23         H  0.67929609  0.07275244  0.87332662     0.08400
H24         H  0.68967306  0.12506100  0.92250088     0.07200
N25         N  0.81785619  0.13761937  0.64688356    -0.27200
N26         N  0.81236310  0.15662554  0.63627246    -0.35000
C27         C  0.78967685  0.15686301  0.63299633     0.01200
C28         C  0.78067820  0.13723830  0.64230309     0.07200
C29         C  0.79896681  0.12554287  0.65098110    -0.05900
H30         H  0.78033290  0.17080600  0.62557327     0.07900
H31         H  0.79858500  0.10949974  0.65988647     0.09100
Cu32       Cu  0.83561181  0.18265865  0.62997808     0.44200
Cu33       Cu  0.85036937  0.12800486  0.65574217     0.42000
Cu34       Cu  0.89316376  0.16922790  0.64870097     0.43900
N35         N  0.86147715  0.20664892  0.63364448    -0.34600
N36         N  0.88184179  0.20162906  0.64174031    -0.28800
C37         C  0.89338434  0.22087834  0.64569546    -0.04900
C38         C  0.87988372  0.23890873  0.63943236     0.07300
C39         C  0.85979137  0.22936550  0.63174719     0.01100
H40         H  0.91017121  0.22168048  0.65315340     0.08700
H41         H  0.84454692  0.23829780  0.62672437     0.07800
N42         N  0.90044341  0.13572094  0.65575088    -0.36000
N43         N  0.88440475  0.12044956  0.65922408    -0.28200
C44         C  0.89410221  0.10011815  0.66270369    -0.03400
C45         C  0.91739864  0.10273972  0.66100319     0.05200
C46         C  0.92083817  0.12554197  0.65663469     0.03300
H47         H  0.88485794  0.08441942  0.66504144     0.08400
H48         H  0.93690316  0.13404156  0.65386764     0.07200
N49         N  0.82784502  0.35583598  0.86472725    -0.27200
N50         N  0.82334391  0.36565340  0.84505645    -0.35000
C51         C  0.80066513  0.36661953  0.84226848     0.01200
C52         C  0.79047118  0.35657987  0.86087996     0.07200
C53         C  0.80817414  0.34983472  0.87473873    -0.05900
H54         H  0.79226107  0.37308544  0.82727939     0.07900
H55         H  0.80687515  0.34118602  0.89087860     0.09100
Cu56       Cu  0.84816618  0.37370201  0.82126012     0.44200
Cu57       Cu  0.86055783  0.35119285  0.87697602     0.42000
Cu58       Cu  0.90511094  0.35487895  0.83531287     0.43900
N59         N  0.87430202  0.37068043  0.79773046    -0.34600
N60         N  0.89452035  0.36225150  0.80271871    -0.28800
C61         C  0.90602063  0.35839061  0.78340784    -0.04900
C62         C  0.89255723  0.36508721  0.76546279     0.07300
C63         C  0.87261931  0.37288663  0.77507653     0.01100
H64         H  0.92263119  0.35059684  0.78249126     0.08700
H65         H  0.85736611  0.37800880  0.76619966     0.07800
N66         N  0.91117091  0.35049472  0.86955666    -0.36000
N67         N  0.89485305  0.34981700  0.88494947    -0.28200
C68         C  0.90430981  0.34860016  0.90567803    -0.03400
C69         C  0.92766668  0.34812867  0.90312139     0.05200
C70         C  0.93144184  0.34935770  0.88001554     0.03300
H71         H  0.89488899  0.34815337  0.92143043     0.08400
H72         H  0.94769999  0.35014581  0.87147610     0.07200
N73         N  0.66383854  0.29084204  0.86553785    -0.27200
N74         N  0.68364135  0.28725261  0.87557846    -0.35000
C75         C  0.68652384  0.26482316  0.87860816     0.01200
C76         C  0.66791245  0.25365208  0.86967059     0.07200
C77         C  0.65387225  0.27064595  0.86147848    -0.05900
H78         H  0.70192052  0.25712881  0.88503367     0.07900
H79         H  0.63799876  0.26844986  0.85247067     0.09100
Cu80       Cu  0.70852070  0.31195322  0.87965537     0.44200
Cu81       Cu  0.65207977  0.32307545  0.85639126     0.42000
Cu82       Cu  0.69591995  0.36587662  0.85412603     0.43900
N83         N  0.73321302  0.33611939  0.87239426    -0.34600
N84         N  0.72865736  0.35522350  0.86157300    -0.28800
C85         C  0.74829390  0.36562401  0.85620058    -0.04900
C86         C  0.76603607  0.35261647  0.86434117     0.07300
C87         C  0.75590080  0.33407942  0.87460497     0.01100
H88         H  0.74955610  0.38133760  0.84680248     0.08700
H89         H  0.76440292  0.31954661  0.88190537     0.07800
N90         N  0.66167429  0.37297958  0.84979128    -0.36000
N91         N  0.64549099  0.35741373  0.85025875    -0.28200
C92         C  0.62523364  0.36772197  0.84745158    -0.03400
C93         C  0.62885883  0.39091109  0.84521158     0.05200
C94         C  0.65219962  0.39351739  0.84689376     0.03300
H95         H  0.60904214  0.35903843  0.84788823     0.08400
H96         H  0.66165096  0.40925057  0.84622378     0.07200
N97         N  0.88565544  0.30033353  0.64028633    -0.27200
N98         N  0.89571412  0.29493383  0.65963199    -0.35000
C99         C  0.89575632  0.27224346  0.66184303     0.01200
C100        C  0.88483872  0.26300311  0.64325555     0.07200
C101        C  0.87856714  0.28123838  0.62995680    -0.05900
H102        H  0.90215643  0.26320959  0.67648774     0.07900
H103        H  0.86952403  0.28069741  0.61398477     0.09100
Cu104      Cu  0.90513759  0.31838102  0.68425108     0.44200
Cu105      Cu  0.88212134  0.33335564  0.62870062     0.42000
Cu106      Cu  0.88946291  0.37585419  0.67158414     0.43900
N107        N  0.90260692  0.34363916  0.70870322    -0.34600
N108        N  0.89500912  0.36420989  0.70407302    -0.28800
C109        C  0.89100575  0.37530605  0.72355936    -0.04900
C110        C  0.89682441  0.36120726  0.74129793     0.07300
C111        C  0.90418719  0.34129147  0.73135672     0.01100
H112        H  0.88383189  0.39214713  0.72470702     0.08700
H113        H  0.90858091  0.32568761  0.73995433     0.07800
N114        N  0.88675570  0.38331223  0.63754277    -0.36000
N115        N  0.88355059  0.36779468  0.62171177    -0.28200
C116        C  0.88261593  0.37808556  0.60137555    -0.03400
C117        C  0.88568803  0.40114100  0.60461921     0.05200
C118        C  0.88820495  0.40384007  0.62776797     0.03300
H119        H  0.88030574  0.36939229  0.58538462     0.08400
H120        H  0.89060993  0.41954402  0.63692430     0.07200
N121        N  0.71955669  0.12798555  0.64047732    -0.27200
N122        N  0.72474914  0.11835473  0.66004687    -0.35000
C123        C  0.74731515  0.11961668  0.66320374     0.01200
C124        C  0.75669838  0.13094583  0.64494620     0.07200
C125        C  0.73866117  0.13609527  0.63084028    -0.05900
H126        H  0.75605411  0.11399685  0.67834468     0.07900
H127        H  0.73931248  0.14522923  0.61493174     0.09100
Cu128      Cu  0.70072332  0.10893217  0.68391554     0.44200
Cu129      Cu  0.68650670  0.13005647  0.62876629     0.42000
Cu130      Cu  0.64397024  0.12995570  0.67317069     0.43900
N131        N  0.67695805  0.11440608  0.70920492    -0.34600
N132        N  0.65706765  0.12422400  0.70564161    -0.28800
C133        C  0.64797563  0.12989756  0.72584480    -0.04900
C134        C  0.66268980  0.12290531  0.74281455     0.07300
C135        C  0.68079166  0.11307096  0.73165314     0.01100
H136        H  0.63210692  0.13888466  0.72800440     0.08700
H137        H  0.69644024  0.10709150  0.73920810     0.07800
N138        N  0.63623818  0.13019648  0.63855570    -0.36000
N139        N  0.65192796  0.12932497  0.62251285    -0.28200
C140        C  0.64175569  0.12808728  0.60213169    -0.03400
C141        C  0.61850526  0.12844333  0.60539117     0.05200
C142        C  0.61557983  0.12994950  0.62867642     0.03300
H143        H  0.65066647  0.12739625  0.58609598     0.08400
H144        H  0.59961576  0.13040442  0.63776648     0.07200
N145        N  0.16472228  0.37191787  0.80432795    -0.27200
N146        N  0.18511305  0.38077284  0.80095688    -0.35000
C147        C  0.18965639  0.38065248  0.77861173     0.01200
C148        C  0.17143689  0.37090800  0.76748896     0.07200
C149        C  0.15591599  0.36560219  0.78425704    -0.05900
H150        H  0.20582631  0.38540189  0.77126157     0.07900
H151        H  0.13993760  0.35674059  0.78218457     0.09100
Cu152      Cu  0.20835218  0.38696345  0.82665355     0.44200
Cu153      Cu  0.15096731  0.36592500  0.83607061     0.42000
Cu154      Cu  0.19365863  0.36104742  0.87967169     0.43900
N155        N  0.23174616  0.38082473  0.85222240    -0.34600
N156        N  0.22653000  0.36976903  0.87102196    -0.28800
C157        C  0.24574263  0.36460889  0.88222624    -0.04900
C158        C  0.26389338  0.37308737  0.87000518     0.07300
C159        C  0.25443800  0.38334755  0.85113488     0.01100
H160        H  0.24647383  0.35466023  0.89763535     0.08700
H161        H  0.26346217  0.39038236  0.83676711     0.07800
N162        N  0.15926584  0.35742061  0.88556096    -0.36000
N163        N  0.14347467  0.35977368  0.86980113    -0.28200
C164        C  0.12288684  0.35795166  0.87953923    -0.03400
C165        C  0.12594574  0.35404605  0.90250712     0.05200
C166        C  0.14922752  0.35390678  0.90569482     0.03300
H167        H  0.10691163  0.35947664  0.87057696     0.08400
H168        H  0.15827437  0.35227751  0.92158447     0.07200
N169        N  0.21685742  0.13092353  0.64159672    -0.27200
N170        N  0.22142802  0.15129037  0.63341714    -0.35000
C171        C  0.24407654  0.15353796  0.63118257     0.01200
C172        C  0.25419927  0.13377974  0.63871801     0.07200
C173        C  0.23648688  0.11983699  0.64530085    -0.05900
H174        H  0.25260468  0.16905826  0.62631100     0.07900
H175        H  0.23779195  0.10325040  0.65303871     0.09100
Cu176      Cu  0.19714312  0.17666653  0.63124644     0.44200
Cu177      Cu  0.18419179  0.12042995  0.64944260     0.42000
Cu178      Cu  0.14416756  0.16529440  0.66168941     0.43900
N179        N  0.17366030  0.20134836  0.64009370    -0.34600
N180        N  0.15543014  0.19759407  0.65271296    -0.28800
C181        C  0.14590889  0.21765643  0.65807099    -0.04900
C182        C  0.15854992  0.23470863  0.64800147     0.07300
C183        C  0.17592818  0.22377429  0.63670950     0.01100
H184        H  0.13100210  0.21967362  0.66861568     0.08700
H185        H  0.18996082  0.23161087  0.62778746     0.07800
N186        N  0.13593419  0.13095206  0.66324989    -0.36000
N187        N  0.15044434  0.11477376  0.65770021    -0.28200
C188        C  0.13955384  0.09474485  0.65759062    -0.03400
C189        C  0.11716597  0.09834355  0.66367508     0.05200
C190        C  0.11543160  0.12150518  0.66719427     0.03300
H191        H  0.14726483  0.07876793  0.65293763     0.08400
H192        H  0.10013858  0.13092989  0.67099044     0.07200
N193        N  0.38352031  0.13238533  0.80092306    -0.27200
N194        N  0.39102038  0.15286900  0.79573508    -0.35000
C195        C  0.39323736  0.15447535  0.77305462     0.01200
C196        C  0.38642039  0.13412544  0.76357176     0.07200
C197        C  0.38024891  0.12057763  0.78169259    -0.05900
H198        H  0.39730089  0.16995388  0.76405659     0.07900
H199        H  0.37282113  0.10380745  0.78089618     0.09100
Cu200      Cu  0.39194711  0.17895183  0.81930769     0.44200
Cu201      Cu  0.37584475  0.12246798  0.83379838     0.42000
Cu202      Cu  0.36601480  0.16669202  0.87491305     0.43900
N203        N  0.38324185  0.20346198  0.84301043    -0.34600
N204        N  0.37258181  0.19942233  0.86239218    -0.28800
C205        C  0.36787041  0.21944999  0.87240009    -0.04900
C206        C  0.37630546  0.23674309  0.85883781     0.07300
C207        C  0.38592587  0.22596168  0.84042111     0.01100
H208        H  0.35931519  0.22127599  0.88853596     0.08700
H209        H  0.39381839  0.23391151  0.82586671     0.07800
N210        N  0.36505837  0.13198854  0.88299244    -0.36000
N211        N  0.36942587  0.11606870  0.86781384    -0.28200
C212        C  0.36974011  0.09572320  0.87812584    -0.03400
C213        C  0.36509184  0.09876303  0.90090483     0.05200
C214        C  0.36210483  0.12198636  0.90341693     0.03300
H215        H  0.37344268  0.07986522  0.86969654     0.08400
H216        H  0.35904741  0.13099943  0.91909438     0.07200
N217        N  0.38204468  0.29835375  0.86022072    -0.27200
N218        N  0.36328875  0.29567274  0.87234778    -0.35000
C219        C  0.35877758  0.27335835  0.87439561     0.01200
C220        C  0.37526766  0.26142386  0.86274382     0.07200
C221        C  0.38968672  0.27778802  0.85393600    -0.05900
H222        H  0.34389249  0.26641698  0.88265629     0.07900
H223        H  0.40450643  0.27496379  0.84345856     0.09100
Cu224      Cu  0.34220770  0.32220497  0.88194860     0.44200
Cu225      Cu  0.39627914  0.32983127  0.85193108     0.42000
Cu226      Cu  0.35790657  0.37640849  0.85841298     0.43900
N227        N  0.31989616  0.34928122  0.87919089    -0.34600
N228        N  0.32532193  0.36852611  0.86902223    -0.28800
C229        C  0.30630727  0.38059194  0.86532740    -0.04900
C230        C  0.28809526  0.36848242  0.87384265     0.07300
C231        C  0.29730305  0.34879418  0.88265004     0.01100
H232        H  0.30567279  0.39642689  0.85607310     0.08700
H233        H  0.28804862  0.33425442  0.88900673     0.07800
N234        N  0.39178317  0.38059976  0.84992669    -0.36000
N235        N  0.40610374  0.36359420  0.84707990    -0.28200
C236        C  0.42693664  0.37214771  0.84268178    -0.03400
C237        C  0.42558954  0.39566034  0.84299729     0.05200
C238        C  0.40303955  0.40031006  0.84771521     0.03300
H239        H  0.44212543  0.36204214  0.84063601     0.08400
H240        H  0.39545679  0.41685694  0.84997496     0.07200
N241        N  0.31593644  0.13248705  0.63941299    -0.27200
N242        N  0.31143982  0.12419869  0.65978978    -0.35000
C243        C  0.28876060  0.12234010  0.66220890     0.01200
C244        C  0.27858098  0.13015855  0.64256445     0.07200
C245        C  0.29625605  0.13658461  0.62854279    -0.05900
H246        H  0.28029556  0.11703803  0.67762070     0.07900
H247        H  0.29492093  0.14395120  0.61178368     0.09100
Cu248      Cu  0.33606237  0.11938564  0.68466916     0.44200
Cu249      Cu  0.34858593  0.13768597  0.62713849     0.42000
Cu250      Cu  0.39353717  0.13314034  0.66863842     0.43900
N251        N  0.36240746  0.12348174  0.70784932    -0.34600
N252        N  0.38308157  0.13015847  0.70208256    -0.28800
C253        C  0.39511358  0.13454022  0.72102194    -0.04900
C254        C  0.38147165  0.12987638  0.73953589     0.07300
C255        C  0.36090766  0.12288185  0.73060493     0.01100
H256        H  0.41237244  0.14089263  0.72127419     0.08700
H257        H  0.34555890  0.11900594  0.73994618     0.07800
N258        N  0.39911755  0.13372229  0.63393017    -0.36000
N259        N  0.38281056  0.13639012  0.61872363    -0.28200
C260        C  0.39205886  0.13613425  0.59783993    -0.03400
C261        C  0.41522901  0.13281314  0.60008683     0.05200
C262        C  0.41909481  0.13127625  0.62315231     0.03300
H263        H  0.38254299  0.13755227  0.58219842     0.08400
H264        H  0.43526666  0.12870913  0.63150100     0.07200
N265        N  0.16122079  0.29612408  0.64545753    -0.27200
N266        N  0.15343857  0.29327383  0.66629685    -0.35000
C267        C  0.14971279  0.27102039  0.66989126     0.01200
C268        C  0.15583054  0.25935458  0.65047960     0.07200
C269        C  0.16307044  0.27577947  0.63537862    -0.05900
H270        H  0.14493442  0.26372761  0.68605007     0.07900
H271        H  0.17030591  0.27304922  0.61873490     0.09100
Cu272      Cu  0.15378069  0.31909402  0.69018473     0.44200
Cu273      Cu  0.17199613  0.32712309  0.63280763     0.42000
Cu274      Cu  0.19097007  0.36671419  0.67481855     0.43900
N275        N  0.16393263  0.34449670  0.71234757    -0.34600
N276        N  0.17870793  0.36063737  0.70718689    -0.28800
C277        C  0.18329870  0.37279981  0.72591473    -0.04900
C278        C  0.17060824  0.36407163  0.74358761     0.07300
C279        C  0.15850100  0.34619532  0.73443110     0.01100
H280        H  0.19498848  0.38696019  0.72657800     0.08700
H281        H  0.14735195  0.33463599  0.74335757     0.07800
N282        N  0.19264054  0.37322521  0.64035180    -0.36000
N283        N  0.18447698  0.35907256  0.62500695    -0.28200
C284        C  0.18437658  0.36940636  0.60469025    -0.03400
C285        C  0.19294348  0.39112013  0.60735210     0.05200
C286        C  0.19820311  0.39289302  0.63016047     0.03300
H287        H  0.17782455  0.36189920  0.58928122     0.08400
H288        H  0.20394593  0.40792803  0.63897792     0.07200
N289        N  0.39179285  0.79426593  0.86638517    -0.27200
N290        N  0.40006765  0.79039848  0.84591189    -0.35000
C291        C  0.40386260  0.76806556  0.84352581     0.01200
C292        C  0.39734054  0.75736585  0.86333392     0.07200
C293        C  0.38968276  0.77442646  0.87745253    -0.05900
H294        H  0.40934379  0.76006014  0.82795649     0.07900
H295        H  0.38254446  0.77251811  0.89425902     0.09100
Cu296      Cu  0.40116773  0.81473263  0.82064438     0.44200
Cu297      Cu  0.38305271  0.82631008  0.87765769     0.42000
Cu298      Cu  0.37345143  0.86787131  0.83319957     0.43900
N299        N  0.39141484  0.83780519  0.79604888    -0.34600
N300        N  0.37979302  0.85648918  0.80035491    -0.28800
C301        C  0.37337369  0.86591346  0.78053203    -0.18100
C302        C  0.38162195  0.85260921  0.76302323     0.07300
C303        C  0.39301518  0.83501509  0.77348916     0.01100
H304        H  0.36323867  0.88112868  0.77899399     0.08700
H305        H  0.40080085  0.82054248  0.76534863     0.07800
N306        N  0.37398626  0.87560731  0.86767972    -0.36000
N307        N  0.37808357  0.86051012  0.88376253    -0.28200
C308        C  0.37933108  0.87114466  0.90389905    -0.03400
C309        C  0.37574915  0.89406284  0.90039005     0.05200
C310        C  0.37223314  0.89624007  0.87724900     0.03300
H311        H  0.38257482  0.86275292  0.91989598     0.08400
H312        H  0.36933633  0.91179217  0.86795285     0.07200
N313        N  0.14796198  0.79570178  0.63831938    -0.27200
N314        N  0.16769360  0.79187861  0.62832862    -0.35000
C315        C  0.17068519  0.76937119  0.62625095     0.01200
C316        C  0.15213219  0.75856837  0.63578030     0.07200
C317        C  0.13809283  0.77573851  0.64333778    -0.05900
H318        H  0.18619295  0.76146964  0.62038574     0.07900
H319        H  0.12246634  0.77386923  0.65283158     0.09100
Cu320      Cu  0.19217000  0.81685376  0.62415724     0.44200
Cu321      Cu  0.13683353  0.82783995  0.64690295     0.42000
Cu322      Cu  0.18110546  0.87007772  0.65324595     0.43900
N323        N  0.21713349  0.84039898  0.63212112    -0.34600
N324        N  0.21353402  0.85893427  0.64422552    -0.28800
C325        C  0.23376211  0.86841012  0.64935904    -0.04900
C326        C  0.25077265  0.85534541  0.63973710     0.07300
C327        C  0.23959712  0.83781806  0.62890412     0.01100
H328        H  0.23593174  0.88348341  0.65958313     0.08700
H329        H  0.24728473  0.82346150  0.62047040     0.07800
N330        N  0.14648940  0.87716086  0.65631039    -0.36000
N331        N  0.13043190  0.86173010  0.65335846    -0.28200
C332        C  0.10997709  0.87182412  0.65421909    -0.03400
C333        C  0.11321925  0.89475100  0.65798210     0.05200
C334        C  0.13658098  0.89750373  0.65940840     0.03300
H335        H  0.09395185  0.86309242  0.65201102     0.08400
H336        H  0.14571885  0.91329200  0.66151359     0.07200
N337        N  0.23516036  0.64182333  0.87266228    -0.27200
N338        N  0.23846485  0.63136208  0.85309824    -0.35000
C339        C  0.26078017  0.62734610  0.85048061     0.01200
C340        C  0.27210128  0.63599128  0.86908541     0.07200
C341        C  0.25539965  0.64512842  0.88280645    -0.05900
H342        H  0.26832855  0.62003539  0.83544096     0.07900
H343        H  0.25779566  0.65389018  0.89874764     0.09100
Cu344      Cu  0.21358610  0.62695743  0.82859750     0.44200
Cu345      Cu  0.20329977  0.65142744  0.88430160     0.42000
Cu346      Cu  0.15998548  0.65287579  0.84067018     0.43900
N347        N  0.18935950  0.63342521  0.80390006    -0.34600
N348        N  0.17023535  0.64434375  0.80817281    -0.28800
C349        C  0.15971500  0.64900191  0.78845503    -0.04900
C350        C  0.17274616  0.64034496  0.77097871     0.07300
C351        C  0.19136269  0.63049771  0.78135769     0.01100
H352        H  0.14396372  0.65832809  0.78694821     0.08700
H353        H  0.20593050  0.62298588  0.77308110     0.07800
N354        N  0.15328228  0.65690644  0.87491257    -0.36000
N355        N  0.16897780  0.65613495  0.89094127    -0.28200
C356        C  0.15877574  0.65749936  0.91132269    -0.03400
C357        C  0.13552470  0.65922621  0.90792295     0.05200
C358        C  0.13273277  0.65894901  0.88462298     0.03300
H359        H  0.16767516  0.65707648  0.92736796     0.08400
H360        H  0.11684196  0.65933910  0.87539262     0.07200
N361        N  0.33359899  0.63314211  0.86579311    -0.27200
N362        N  0.33108136  0.65171343  0.87805984    -0.35000
C363        C  0.30884012  0.65482413  0.88234295     0.01200
C364        C  0.29683856  0.63753655  0.87196371     0.07200
C365        C  0.31303826  0.62412443  0.86160920    -0.05900
H366        H  0.30182455  0.66957905  0.89067282     0.07900
H367        H  0.31005835  0.60942227  0.85104981     0.09100
Cu368      Cu  0.35721623  0.67468703  0.88320797     0.44200
Cu369      Cu  0.36471134  0.62204400  0.85385551     0.42000
Cu370      Cu  0.40840577  0.66430216  0.84970436     0.43900
N371        N  0.38104370  0.69930053  0.87522007    -0.34600
N372        N  0.39861130  0.69589413  0.86163618    -0.28800
C373        C  0.40782500  0.71604455  0.85617477    -0.04900
C374        C  0.39562906  0.73283651  0.86704370     0.07300
C375        C  0.37887307  0.72165638  0.87905740     0.01100
H376        H  0.42177142  0.71833937  0.84443328     0.08700
H377        H  0.36493682  0.72929758  0.88825051     0.07800
N378        N  0.41412997  0.63017588  0.84351232    -0.36000
N379        N  0.39807811  0.61463475  0.84570784    -0.28200
C380        C  0.40742610  0.59396881  0.84368917    -0.03400
C381        C  0.43043679  0.59660266  0.83974062     0.05200
C382        C  0.43412574  0.61979276  0.83969069     0.03300
H383        H  0.39828459  0.57817485  0.84576508     0.08400
H384        H  0.45032637  0.62840914  0.83850777     0.07200
N385        N  0.15660621  0.69741506  0.64086351    -0.27200
N386        N  0.14874092  0.70265098  0.66119906    -0.35000
C387        C  0.14453404  0.72505485  0.66194951     0.01200
C388        C  0.15039661  0.73434528  0.64121503     0.07200
C389        C  0.15810736  0.71640241  0.62829884    -0.05900
H390        H  0.13938630  0.73416455  0.67701701     0.07900
H391        H  0.16501150  0.71718874  0.61130794     0.09100
Cu392      Cu  0.14894040  0.68005861  0.68821748     0.44200
Cu393      Cu  0.16611852  0.66489195  0.63165696     0.42000
Cu394      Cu  0.17699286  0.62574353  0.67695870     0.43900
N395        N  0.15913854  0.65745732  0.71325066    -0.34600
N396        N  0.17065403  0.63860753  0.70925823    -0.28800
C397        C  0.17702734  0.62946968  0.72919760    -0.04900
C398        C  0.16884626  0.64301603  0.74649011     0.07300
C399        C  0.15753612  0.66054826  0.73580469     0.01100
H400        H  0.18692315  0.61412233  0.73096010     0.08700
H401        H  0.14965452  0.67505828  0.74378844     0.07800
N402        N  0.17769608  0.61640611  0.64286288    -0.36000
N403        N  0.17323170  0.63089776  0.62635622    -0.28200
C404        C  0.17330735  0.61983937  0.60643290    -0.03400
C405        C  0.17803814  0.59718030  0.61044724     0.05200
C406        C  0.18093270  0.59568187  0.63378295     0.03300
H407        H  0.17017843  0.62781461  0.59020828     0.08400
H408        H  0.18441167  0.58051546  0.64350693     0.07200
N409        N  0.31250803  0.85177845  0.63838339    -0.27200
N410        N  0.30953000  0.86281710  0.65769114    -0.35000
C411        C  0.28719537  0.86698039  0.66050314     0.01200
C412        C  0.27556181  0.85782948  0.64227907     0.07200
C413        C  0.29212615  0.84833656  0.62862195    -0.05900
H414        H  0.27983935  0.87451973  0.67552506     0.07900
H415        H  0.28948694  0.83883811  0.61314966     0.09100
Cu416      Cu  0.33506703  0.86733374  0.68165867     0.44200
Cu417      Cu  0.34380678  0.84001323  0.62683914     0.42000
Cu418      Cu  0.38715781  0.83705487  0.66954061     0.43900
N419        N  0.36008465  0.86108195  0.70575649    -0.34600
N420        N  0.37840402  0.84881566  0.70153940    -0.28800
C421        C  0.38931212  0.84470931  0.72115839    -0.04900
C422        C  0.37741951  0.85504516  0.73853160     0.07300
C423        C  0.35905104  0.86538202  0.72816672     0.01100
H424        H  0.40438960  0.83434362  0.72273173     0.08700
H425        H  0.34511256  0.87396850  0.73647208     0.07800
N426        N  0.39301893  0.82943328  0.63568994    -0.36000
N427        N  0.37713441  0.83042046  0.61985048    -0.28200
C428        C  0.38678377  0.82653420  0.59948498    -0.03400
C429        C  0.40980396  0.82295556  0.60276057     0.05200
C430        C  0.41316503  0.82506715  0.62586180     0.03300
H431        H  0.37798695  0.82764101  0.58340553     0.08400
H432        H  0.42926477  0.82467918  0.63472332     0.07200
N433        N  0.88404765  0.79573503  0.64607123    -0.27200
N434        N  0.86529450  0.78881616  0.63581542    -0.35000
C435        C  0.86593338  0.76607820  0.63384551     0.01200
C436        C  0.88585620  0.75839424  0.64368420     0.07200
C437        C  0.89686966  0.77761158  0.65135596    -0.05900
H438        H  0.85227350  0.75580298  0.62709240     0.07900
H439        H  0.91285000  0.77835818  0.66041195     0.09100
Cu440      Cu  0.83820091  0.81044356  0.62881915     0.44200
Cu441      Cu  0.89111266  0.82952000  0.65256690     0.42000
Cu442      Cu  0.84601670  0.87004675  0.64438147     0.43900
N443        N  0.81177423  0.83379355  0.63152299    -0.34600
N444        N  0.81441384  0.85495938  0.63853151    -0.28800
C445        C  0.79374757  0.86419008  0.64194139    -0.04900
C446        C  0.77737935  0.84823248  0.63643568     0.07300
C447        C  0.78940799  0.82923404  0.62979757     0.01100
H448        H  0.79085818  0.88110317  0.64840920     0.08700
H449        H  0.78242244  0.81281577  0.62548235     0.07800
N450        N  0.87972360  0.87935335  0.65051082    -0.36000
N451        N  0.89591366  0.86427564  0.65420138    -0.28200
C452        C  0.91568511  0.87511462  0.65779012    -0.03400
C453        C  0.91193306  0.89822021  0.65627100     0.05200
C454        C  0.88892398  0.90029239  0.65143906     0.03300
H455        H  0.93176204  0.86668145  0.66053636     0.08400
H456        H  0.87956590  0.91586143  0.64886675     0.07200
N457        N  0.66601252  0.79807318  0.86462770    -0.27200
N458        N  0.65289028  0.79333228  0.84705904    -0.35000
C459        C  0.64899520  0.77087639  0.84649174     0.01200
C460        C  0.66040947  0.76097323  0.86443407     0.07200
C461        C  0.67105110  0.77869466  0.87559366    -0.05900
H462        H  0.63971568  0.76226410  0.83319426     0.07900
H463        H  0.68203356  0.77755223  0.89027253     0.09100
Cu464      Cu  0.64428033  0.81699739  0.82254318     0.44200
Cu465      Cu  0.67630249  0.83080651  0.87235352     0.42000
Cu466      Cu  0.66447151  0.87447702  0.83033570     0.43900
N467        N  0.64609718  0.84055765  0.79651588    -0.34600
N468        N  0.65495783  0.86105693  0.79881040    -0.28800
C469        C  0.65770343  0.87019754  0.77799923    -0.04900
C470        C  0.64984241  0.85482981  0.76199601     0.07300
C471        C  0.64252714  0.83632568  0.77438526     0.01100
H472        H  0.66563031  0.88642910  0.77470211     0.08700
H473        H  0.63683130  0.82020923  0.76770243     0.07800
N474        N  0.67298711  0.88135185  0.86417816    -0.36000
N475        N  0.67827861  0.86527782  0.87891835    -0.28200
C476        C  0.68228071  0.87471960  0.89926845    -0.03400
C477        C  0.67925707  0.89790782  0.89751695     0.05200
C478        C  0.67322192  0.90150845  0.87500759     0.03300
H479        H  0.68580465  0.86517894  0.91453938     0.08400
H480        H  0.66894415  0.91754626  0.86719085     0.07200
N481        N  0.82460349  0.64573844  0.87519104    -0.27200
N482        N  0.82081109  0.63346693  0.85674229    -0.35000
C483        C  0.79852401  0.62849469  0.85547210     0.01200
C484        C  0.78758611  0.63838706  0.87366090     0.07200
C485        C  0.80459992  0.64924023  0.88580280    -0.05900
H486        H  0.79061703  0.61978872  0.84137563     0.07900
H487        H  0.80249882  0.65946923  0.90088215     0.09100
Cu488      Cu  0.84440068  0.62748792  0.83111395     0.44200
Cu489      Cu  0.85672287  0.65780416  0.88501612     0.42000
Cu490      Cu  0.89851407  0.65199925  0.84094412     0.43900
N491        N  0.86852611  0.63096321  0.80549650    -0.34600
N492        N  0.88813443  0.64123069  0.80923684    -0.28800
C493        C  0.89893117  0.64434616  0.78941245    -0.04900
C494        C  0.88569414  0.63530070  0.77230532     0.07300
C495        C  0.86649977  0.62687839  0.78306351     0.01100
H496        H  0.91489392  0.65327443  0.78750445     0.08700
H497        H  0.85150258  0.61991573  0.77503173     0.07800
N498        N  0.90662443  0.66084443  0.87388386    -0.36000
N499        N  0.89150988  0.66375340  0.89020975    -0.28200
C500        C  0.90270816  0.66814716  0.90972574    -0.03400
C501        C  0.92593726  0.66766945  0.90539342     0.05200
C502        C  0.92765762  0.66294593  0.88249900     0.03300
H503        H  0.89463599  0.67000661  0.92610300     0.08400
H504        H  0.94312500  0.66042971  0.87290801     0.07200
N505        N  0.89413510  0.69737403  0.64499329    -0.27200
N506        N  0.90103338  0.70283974  0.66559382    -0.35000
C507        C  0.90047041  0.72554886  0.66780096     0.01200
C508        C  0.89241159  0.73469034  0.64772111     0.07200
C509        C  0.88848827  0.71635567  0.63366512    -0.05900
H510        H  0.90380475  0.73456930  0.68342753     0.07900
H511        H  0.88128334  0.71671118  0.61678225     0.09100
Cu512      Cu  0.90525326  0.67859569  0.69079663     0.44200
Cu513      Cu  0.89101145  0.66409033  0.63450601     0.42000
Cu514      Cu  0.88706717  0.62023122  0.67763238     0.43900
N515        N  0.89835960  0.65380648  0.71488536    -0.34600
N516        N  0.89015736  0.63334928  0.71048415    -0.28800
C517        C  0.88439669  0.62332692  0.73026998    -0.04900
C518        C  0.88963066  0.63806761  0.74780122     0.07300
C519        C  0.89852184  0.65708730  0.73742777     0.01100
H520        H  0.87693257  0.60662006  0.73176810     0.08700
H521        H  0.90364212  0.67269495  0.74561132     0.07800
N522        N  0.88707865  0.61360855  0.64274561    -0.36000
N523        N  0.88901733  0.62984557  0.62737873    -0.28200
C524        C  0.88924608  0.62060665  0.60658779    -0.03400
C525        C  0.88728883  0.59736334  0.60873137     0.05200
C526        C  0.88577717  0.59348244  0.63193236     0.03300
H527        H  0.89035035  0.63024320  0.59100813     0.08400
H528        H  0.88418077  0.57723443  0.64031543     0.07200
N529        N  0.72572561  0.63558470  0.87145663    -0.27200
N530        N  0.72874522  0.65535705  0.88157211    -0.35000
C531        C  0.75108009  0.65857542  0.88535923     0.01200
C532        C  0.76278430  0.64011781  0.87689577     0.07200
C533        C  0.74617711  0.62587245  0.86817277    -0.05900
H534        H  0.75838968  0.67409576  0.89188914     0.07900
H535        H  0.74884911  0.61014486  0.85913093     0.09100
Cu536      Cu  0.70319216  0.67932381  0.88453471     0.44200
Cu537      Cu  0.69388053  0.62414324  0.86076739     0.42000
Cu538      Cu  0.65012857  0.66697133  0.85496389     0.43900
N539        N  0.67886235  0.70352786  0.87682929    -0.34600
N540        N  0.66020080  0.69929676  0.86502646    -0.28800
C541        C  0.65016275  0.71909436  0.85973467    -0.04900
C542        C  0.66305932  0.73654828  0.86872548     0.07300
C543        C  0.68103498  0.72606876  0.87955934     0.01100
H544        H  0.63512809  0.72068844  0.84928843     0.08700
H545        H  0.69554523  0.73425575  0.88732565     0.07800
N546        N  0.64433687  0.63259819  0.84927308    -0.36000
N547        N  0.66022373  0.61698980  0.85210188    -0.28200
C548        C  0.65075903  0.59636186  0.84964503    -0.03400
C549        C  0.62788842  0.59904128  0.84481426     0.05200
C550        C  0.62441090  0.62226237  0.84459751     0.03300
H551        H  0.65975297  0.58052312  0.85181219     0.08400
H552        H  0.60835490  0.63093777  0.84249841     0.07200
N553        N  0.71563267  0.84298838  0.63708015    -0.27200
N554        N  0.71880749  0.85615982  0.65495202    -0.35000
C555        C  0.74113064  0.86095845  0.65680562     0.01200
C556        C  0.75256629  0.84995667  0.63950294     0.07200
C557        C  0.73588964  0.83866019  0.62739056    -0.05900
H558        H  0.74864795  0.87045544  0.67060013     0.07900
H559        H  0.73834394  0.82774480  0.61285798     0.09100
Cu560      Cu  0.69322661  0.86307505  0.67835804     0.44200
Cu561      Cu  0.68382899  0.83105845  0.62720493     0.42000
Cu562      Cu  0.63994877  0.83228062  0.66984650     0.43900
N563        N  0.66844406  0.85914389  0.70327678    -0.34600
N564        N  0.64997670  0.84655105  0.70071907    -0.28800
C565        C  0.63988593  0.84402206  0.72107917    -0.04900
C566        C  0.65238649  0.85584051  0.73711720     0.07300
C567        C  0.67028700  0.86529974  0.72520009     0.01100
H568        H  0.62502658  0.83363479  0.72413827     0.08700
H569        H  0.68464599  0.87433390  0.73227343     0.07800
N570        N  0.63384761  0.82332171  0.63610961    -0.36000
N571        N  0.64994343  0.82342840  0.62045818    -0.28200
C572        C  0.64040612  0.81994848  0.59999901    -0.03400
C573        C  0.61714070  0.81744389  0.60280118     0.05200
C574        C  0.61364985  0.81948448  0.62598356     0.03300
H575        H  0.64967834  0.82007018  0.58416102     0.08400
H576        H  0.59743719  0.81976349  0.63463370     0.07200
N577        N  0.15590300  0.63556780  0.21201282    -0.27200
N578        N  0.17537826  0.62575918  0.21743773    -0.35000
C579        C  0.17630173  0.62310960  0.24007788     0.01200
C580        C  0.15668930  0.63201273  0.24937832     0.07200
C581        C  0.14416795  0.63989162  0.23115240    -0.05900
H582        H  0.19077551  0.61641194  0.24919900     0.07900
H583        H  0.12788764  0.64837734  0.23176021     0.09100
Cu584      Cu  0.20160298  0.61990413  0.19452747     0.44200
Cu585      Cu  0.14652509  0.64306481  0.17881764     0.42000
Cu586      Cu  0.19232578  0.64348609  0.13830427     0.43900
N587        N  0.22724934  0.62323961  0.17044776    -0.34600
N588        N  0.22402031  0.63300828  0.15049000    -0.28800
C589        C  0.24427721  0.63557123  0.14020683    -0.04900
C590        C  0.26104580  0.62680942  0.15417894     0.07300
C591        C  0.24962241  0.61903993  0.17319278     0.01100
H592        H  0.24670912  0.64385918  0.12400950     0.08700
H593        H  0.25715515  0.61231626  0.18852710     0.07800
N594        N  0.15847595  0.64974095  0.12946056    -0.36000
N595        N  0.14166706  0.64876966  0.14431693    -0.28200
C596        C  0.12177886  0.65140324  0.13334209    -0.03400
C597        C  0.12617238  0.65433881  0.11042533     0.05200
C598        C  0.14967418  0.65337508  0.10863827     0.03300
H599        H  0.10530868  0.65106435  0.14148061     0.08400
H600        H  0.15956361  0.65423793  0.09319237     0.07200
N601        N  0.15203497  0.79338330  0.37323586    -0.27200
N602        N  0.17192986  0.79035166  0.38318053    -0.35000
C603        C  0.17536911  0.76804379  0.38637710     0.01200
C604        C  0.15688916  0.75644555  0.37770980     0.07200
C605        C  0.14240093  0.77301689  0.36951380    -0.05900
H606        H  0.19107234  0.76074627  0.39252188     0.07900
H607        H  0.12661984  0.77042230  0.36045044     0.09100
Cu608      Cu  0.19597112  0.81579746  0.38581979     0.44200
Cu609      Cu  0.14057132  0.82507513  0.36302732     0.42000
Cu610      Cu  0.18478452  0.86659006  0.35261591     0.43900
N611        N  0.22094984  0.83787521  0.37477773    -0.34600
N612        N  0.21722756  0.85522382  0.36103441    -0.28800
C613        C  0.23736720  0.86306505  0.35346939    -0.04900
C614        C  0.25444296  0.85016900  0.36317713     0.07300
C615        C  0.24344277  0.83449365  0.37666494     0.01100
H616        H  0.23939053  0.87673209  0.34138490     0.08700
H617        H  0.25112315  0.82054127  0.38578662     0.07800
N618        N  0.15019857  0.87398863  0.35102232    -0.36000
N619        N  0.13417296  0.85887900  0.35547771    -0.28200
C620        C  0.11387352  0.86932604  0.35577316    -0.03400
C621        C  0.11718692  0.89211290  0.35119092     0.05200
C622        C  0.14042054  0.89442840  0.34807141     0.03300
H623        H  0.09792905  0.86100663  0.35959286     0.08400
H624        H  0.14965145  0.91003896  0.34516405     0.07200
N625        N  0.38409278  0.78803079  0.13304604    -0.27200
N626        N  0.39443432  0.78373011  0.15251856    -0.35000
C627        C  0.39686581  0.76120412  0.15492118     0.01200
C628        C  0.38728206  0.75069377  0.13631691     0.07200
C629        C  0.37920268  0.76815584  0.12280064    -0.05900
H630        H  0.40379863  0.75302285  0.16982448     0.07900
H631        H  0.37024289  0.76652916  0.10685615     0.09100
Cu632      Cu  0.40081905  0.80780498  0.17732373     0.44200
Cu633      Cu  0.37724714  0.82099022  0.12172886     0.42000
Cu634      Cu  0.38025785  0.86376041  0.16601228     0.43900
N635        N  0.39568170  0.83160825  0.20264792    -0.34600
N636        N  0.38634142  0.85161147  0.19875734    -0.28800
C637        C  0.38102215  0.86122714  0.21879794    -0.04900
C638        C  0.38776614  0.84673677  0.23605194     0.07300
C639        C  0.39705845  0.82818294  0.22518360     0.01100
H640        H  0.37222971  0.87721546  0.22066509     0.08700
H641        H  0.40260964  0.81254462  0.23301530     0.07800
N642        N  0.37737123  0.87139216  0.13150025    -0.36000
N643        N  0.37575003  0.85591267  0.11534137    -0.28200
C644        C  0.37447884  0.86650613  0.09507757    -0.03400
C645        C  0.37568560  0.88977229  0.09856537     0.05200
C646        C  0.37742615  0.89213729  0.12192010     0.03300
H647        H  0.37338516  0.85788891  0.07891980     0.08400
H648        H  0.37852540  0.90782448  0.13134633     0.07200
N649        N  0.32336580  0.62547645  0.15398585    -0.27200
N650        N  0.31915660  0.64349297  0.14124182    -0.35000
C651        C  0.29659107  0.64591736  0.13882613     0.01200
C652        C  0.28584364  0.62894901  0.15086922     0.07200
C653        C  0.30330533  0.61626729  0.16037697    -0.05900
H654        H  0.28856460  0.65987604  0.13002174     0.07900
H655        H  0.30155119  0.60162774  0.17130933     0.09100
Cu656      Cu  0.34316110  0.66710104  0.13082743     0.44200
Cu657      Cu  0.35650289  0.61474158  0.16198036     0.42000
Cu658      Cu  0.39941807  0.65758800  0.14957911     0.43900
N659        N  0.36755609  0.69253696  0.13075306    -0.34600
N660        N  0.38813059  0.68918978  0.13905573    -0.28800
C661        C  0.39875220  0.70928824  0.14107063    -0.04900
C662        C  0.38428805  0.72608605  0.13333975     0.07300
C663        C  0.36465625  0.71486409  0.12684766     0.01100
H664        H  0.41531743  0.71162817  0.14869728     0.08700
H665        H  0.34876882  0.72254103  0.12172862     0.07800
N666        N  0.40700987  0.62453346  0.15888974    -0.36000
N667        N  0.39169568  0.60888279  0.16397876    -0.28200
C668        C  0.40262943  0.58926363  0.16845312    -0.03400
C669        C  0.42583590  0.59271625  0.16570131     0.05200
C670        C  0.42787943  0.61531531  0.15973302     0.03300
H671        H  0.39426767  0.57338074  0.17233083     0.08400
H672        H  0.44339490  0.62440683  0.15592835     0.07200
N673        N  0.38334998  0.84379064  0.29775722    -0.27200
N674        N  0.36319222  0.85219806  0.29241688    -0.35000
C675        C  0.36219306  0.85552528  0.26984829     0.01200
C676        C  0.38251279  0.84856522  0.26042374     0.07200
C677        C  0.39549011  0.84107427  0.27855317    -0.05900
H678        H  0.34728449  0.86135232  0.26082619     0.07900
H679        H  0.41239696  0.83392313  0.27780307     0.09100
Cu680      Cu  0.33661011  0.85585960  0.31530747     0.44200
Cu681      Cu  0.39332350  0.83639893  0.33105415     0.42000
Cu682      Cu  0.34825313  0.83772076  0.37260900     0.43900
N683        N  0.31176788  0.85303660  0.34017898    -0.34600
N684        N  0.31595099  0.84517373  0.36076930    -0.28800
C685        C  0.29626123  0.84336625  0.37219256    -0.04900
C686        C  0.27891081  0.85079935  0.35825680     0.07300
C687        C  0.28930127  0.85683914  0.33809342     0.01100
H688        H  0.29469790  0.83702740  0.38934986     0.08700
H689        H  0.28105488  0.86260520  0.32273577     0.07800
N690        N  0.38223839  0.83405887  0.38111036    -0.36000
N691        N  0.39880909  0.83308210  0.36599445    -0.28200
C692        C  0.41874425  0.83092026  0.37705596    -0.03400
C693        C  0.41452865  0.83087867  0.40022531     0.05200
C694        C  0.39115804  0.83285205  0.40210236     0.03300
H695        H  0.43517025  0.82999802  0.36886769     0.08400
H696        H  0.38127947  0.83321190  0.41756764     0.07200
N697        N  0.15457216  0.63058065  0.31086166    -0.27200
N698        N  0.14537735  0.65064823  0.30700303    -0.35000
C699        C  0.14312499  0.65357358  0.28444488     0.01200
C700        C  0.15170167  0.63456809  0.27368196     0.07200
C701        C  0.15884181  0.62039362  0.29093174    -0.05900
H702        H  0.13771330  0.66918340  0.27646004     0.07900
H703        H  0.16764300  0.60440428  0.28911186     0.09100
Cu704      Cu  0.14209635  0.67495248  0.33227845     0.44200
Cu705      Cu  0.16388176  0.61937698  0.34282213     0.42000
Cu706      Cu  0.17535142  0.66334840  0.38356727     0.43900
N707        N  0.14951945  0.69889515  0.35703465    -0.34600
N708        N  0.16295019  0.69513482  0.37465514    -0.28800
C709        C  0.16696775  0.71493567  0.38527030    -0.04900
C710        C  0.15529091  0.73185505  0.37395178     0.07300
C711        C  0.14436016  0.72108673  0.35622269     0.01100
H712        H  0.17797950  0.71692954  0.39983696     0.08700
H713        H  0.13464993  0.72901631  0.34280836     0.07800
N714        N  0.17968706  0.62905620  0.39042414    -0.36000
N715        N  0.17430666  0.61298519  0.37575030    -0.28200
C716        C  0.17592310  0.59269312  0.38599686    -0.03400
C717        C  0.18296442  0.59608688  0.40811929     0.05200
C718        C  0.18522793  0.61935398  0.41035361     0.03300
H719        H  0.17175595  0.57667600  0.37807568     0.08400
H720        H  0.18916035  0.62861141  0.42569704     0.07200
N721        N  0.67105545  0.78840178  0.14117136    -0.27200
N722        N  0.65952308  0.78392978  0.15990478    -0.35000
C723        C  0.65664169  0.76138761  0.16175677     0.01200
C724        C  0.66705682  0.75111381  0.14345675     0.07200
C725        C  0.67610293  0.76871329  0.13075780    -0.05900
H726        H  0.64848789  0.75305045  0.17594484     0.07900
H727        H  0.68575388  0.76731494  0.11520383     0.09100
Cu728      Cu  0.65109169  0.80818323  0.18387968     0.44200
Cu729      Cu  0.67904646  0.82126279  0.13091028     0.42000
Cu730      Cu  0.67154980  0.86488826  0.17388574     0.43900
N731        N  0.65269589  0.83275163  0.20893756    -0.34600
N732        N  0.66183106  0.85300594  0.20578003    -0.28800
C733        C  0.66407314  0.86329276  0.22606344    -0.04900
C734        C  0.65557108  0.84893673  0.24264184     0.07300
C735        C  0.64842287  0.82980162  0.23115814     0.01100
H736        H  0.67187079  0.87971568  0.22862195     0.08700
H737        H  0.64220936  0.81420047  0.23858479     0.07800
N738        N  0.67768367  0.87177835  0.13971219    -0.36000
N739        N  0.68088681  0.85590476  0.12420212    -0.28200
C740        C  0.68321749  0.86584315  0.10376181    -0.03400
C741        C  0.68125641  0.88912001  0.10641782     0.05200
C742        C  0.67768639  0.89219981  0.12946835     0.03300
H743        H  0.68501953  0.85666323  0.08799531     0.08400
H744        H  0.67486311  0.90811624  0.13812267     0.07200
N745        N  0.87965287  0.79811965  0.35938702    -0.27200
N746        N  0.86085228  0.79254995  0.37034235    -0.35000
C747        C  0.85978226  0.76985092  0.37234920     0.01200
C748        C  0.87865825  0.76065930  0.36188433     0.07200
C749        C  0.89087096  0.77903715  0.35375818    -0.05900
H750        H  0.84571851  0.76067947  0.37983247     0.07900
H751        H  0.90662845  0.77856950  0.34431354     0.09100
Cu752      Cu  0.83595097  0.81586689  0.37894307     0.44200
Cu753      Cu  0.88872888  0.83162294  0.35292364     0.42000
Cu754      Cu  0.84546996  0.87464004  0.36345703     0.43900
N755        N  0.81042295  0.84006623  0.37816259    -0.34600
N756        N  0.81343002  0.86113945  0.37104603    -0.28800
C757        C  0.79288413  0.87089003  0.36831583    -0.04900
C758        C  0.77629362  0.85531160  0.37439478     0.07300
C759        C  0.78805188  0.83604263  0.38063964     0.01100
H760        H  0.79018136  0.88769828  0.36147623     0.08700
H761        H  0.78081901  0.81966321  0.38471687     0.07800
N762        N  0.87956182  0.88208704  0.35642762    -0.36000
N763        N  0.89495205  0.86635705  0.35203424    -0.28200
C764        C  0.91524104  0.87637748  0.34877940    -0.03400
C765        C  0.91271654  0.89960196  0.35125711     0.05200
C766        C  0.88982275  0.90255571  0.35623952     0.03300
H767        H  0.93088834  0.86722566  0.34592213     0.08400
H768        H  0.88129629  0.91840855  0.35975051     0.07200
N769        N  0.89137378  0.64060531  0.19881742    -0.27200
N770        N  0.87390955  0.62695241  0.20259892    -0.35000
C771        C  0.87266725  0.62253822  0.22497964     0.01200
C772        C  0.88993160  0.63427274  0.23574819     0.07200
C773        C  0.90141442  0.64554341  0.21868733    -0.05900
H774        H  0.85909660  0.61307642  0.23299118     0.07900
H775        H  0.91552281  0.65716346  0.22064622     0.09100
Cu776      Cu  0.84961889  0.61914759  0.17820552     0.44200
Cu777      Cu  0.90042390  0.65311654  0.16717893     0.42000
Cu778      Cu  0.85938269  0.64470263  0.12333119     0.43900
N779        N  0.82456682  0.62257807  0.15357801    -0.34600
N780        N  0.82801761  0.63306908  0.13404621    -0.28800
C781        C  0.80796524  0.63618719  0.12359152    -0.04900
C782        C  0.79111126  0.62695791  0.13702629     0.07300
C783        C  0.80218877  0.61837350  0.15586695     0.01100
H784        H  0.80575126  0.64528708  0.10780440     0.08700
H785        H  0.79439921  0.61124213  0.17089219     0.07800
N786        N  0.89211090  0.65584134  0.11707379    -0.36000
N787        N  0.90714524  0.65964385  0.13327016    -0.28200
C788        C  0.92715088  0.66527842  0.12373340    -0.03400
C789        C  0.92459075  0.66484263  0.10036256     0.05200
C790        C  0.90213154  0.65874800  0.09681038     0.03300
H791        H  0.94275795  0.66780099  0.13309770     0.08400
H792        H  0.89388700  0.65576070  0.08067909     0.07200
N793        N  0.72940822  0.62512433  0.13805511    -0.27200
N794        N  0.73281879  0.64436908  0.12705227    -0.35000
C795        C  0.75527008  0.64726343  0.12389904     0.01200
C796        C  0.76647975  0.62917836  0.13376076     0.07200
C797        C  0.74960628  0.61549242  0.14263372    -0.05900
H798        H  0.76293169  0.66230759  0.11666856     0.07900
H799        H  0.75184789  0.60007585  0.15233107     0.09100
Cu800      Cu  0.70759495  0.66841958  0.12219925     0.44200
Cu801      Cu  0.69755543  0.61379556  0.14769474     0.42000
Cu802      Cu  0.65509692  0.65715765  0.15298509     0.43900
N803        N  0.68413038  0.69323646  0.13065413    -0.34600
N804        N  0.66590956  0.68937329  0.14324093    -0.28800
C805        C  0.65661538  0.70936935  0.14907867    -0.04900
C806        C  0.66946687  0.72658264  0.13954734     0.07300
C807        C  0.68669353  0.71575171  0.12788779     0.01100
H808        H  0.64195709  0.71124270  0.15999034     0.08700
H809        H  0.70095870  0.72366208  0.11941162     0.07800
N810        N  0.64825808  0.62281690  0.15763391    -0.36000
N811        N  0.66383954  0.60692271  0.15491827    -0.28200
C812        C  0.65397662  0.58643028  0.15671556    -0.03400
C813        C  0.63108517  0.58953263  0.16098622     0.05200
C814        C  0.62805520  0.61280945  0.16160621     0.03300
H815        H  0.66279660  0.57046903  0.15476888     0.08400
H816        H  0.61216545  0.62177303  0.16371992     0.07200
N817        N  0.89012149  0.63383493  0.29750212    -0.27200
N818        N  0.89760075  0.65457335  0.29331858    -0.35000
C819        C  0.89969493  0.65735911  0.27079748     0.01200
C820        C  0.89284862  0.63758927  0.26026765     0.07200
C821        C  0.88678693  0.62302052  0.27765695    -0.05900
H822        H  0.90435550  0.67313619  0.26264892     0.07900
H823        H  0.88003261  0.60603005  0.27601270     0.09100
Cu824      Cu  0.90024062  0.67973160  0.31771353     0.44200
Cu825      Cu  0.88430129  0.62183966  0.33010683     0.42000
Cu826      Cu  0.87755383  0.66585739  0.37269204     0.43900
N827        N  0.89248026  0.70394887  0.34197317    -0.34600
N828        N  0.88259776  0.69899837  0.36150587    -0.28800
C829        C  0.87665548  0.71843468  0.37189063    -0.04900
C830        C  0.88344110  0.73641955  0.35837524     0.07300
C831        C  0.89348853  0.72662561  0.33959903     0.01100
H832        H  0.86775534  0.71939651  0.38791702     0.08700
H833        H  0.89977328  0.73528871  0.32467706     0.07800
N834        N  0.87824522  0.63130835  0.38004560    -0.36000
N835        N  0.88143338  0.61535167  0.36461582    -0.28200
C836        C  0.88291646  0.59509991  0.37505340    -0.03400
C837        C  0.88032989  0.59842395  0.39814957     0.05200
C838        C  0.87726554  0.62155829  0.40067157     0.03300
H839        H  0.88559156  0.57914077  0.36643114     0.08400
H840        H  0.87516256  0.63071304  0.41642628     0.07200
N841        N  0.65242165  0.84581015  0.30429631    -0.27200
N842        N  0.67129266  0.85776470  0.30163688    -0.35000
C843        C  0.67450483  0.86181428  0.27939287     0.01200
C844        C  0.65705162  0.85165312  0.26743049     0.07200
C845        C  0.64339679  0.84159832  0.28372094    -0.05900
H846        H  0.68934901  0.87006700  0.27235328     0.07900
H847        H  0.62840427  0.83136931  0.28078999     0.09100
Cu848      Cu  0.69443505  0.86415586  0.32750608     0.44200
Cu849      Cu  0.64044803  0.83470664  0.33573895     0.42000
Cu850      Cu  0.68276648  0.83643317  0.38038796     0.43900
N851        N  0.71859176  0.86052151  0.35296603    -0.34600
N852        N  0.71479417  0.84874190  0.37167612    -0.28800
C853        C  0.73460541  0.84596150  0.38278685    -0.04900
C854        C  0.75157434  0.85690168  0.37069438     0.07300
C855        C  0.74079544  0.86598948  0.35192838     0.01100
H856        H  0.73664209  0.83608691  0.39812650     0.08700
H857        H  0.74881557  0.87429994  0.33764935     0.07800
N858        N  0.64860518  0.82901576  0.38595340    -0.36000
N859        N  0.63311530  0.82792195  0.36971835    -0.28200
C860        C  0.61259820  0.82420355  0.37923853    -0.03400
C861        C  0.61530051  0.82314529  0.40259093     0.05200
C862        C  0.63833607  0.82635766  0.40616771     0.03300
H863        H  0.59673973  0.82368737  0.36996093     0.08400
H864        H  0.64691813  0.82742196  0.42236536     0.07200
N865        N  0.83037026  0.35698620  0.14563064    -0.27200
N866        N  0.82653821  0.36987728  0.16358940    -0.35000
C867        C  0.80396613  0.37276614  0.16593332     0.01200
C868        C  0.79317783  0.36081480  0.14887248     0.07200
C869        C  0.81038287  0.35099594  0.13636523    -0.05900
H870        H  0.79598066  0.38142367  0.17999853     0.07900
H871        H  0.80851534  0.33982695  0.12193205     0.09100
Cu872      Cu  0.85147751  0.37856797  0.18700216     0.44200
Cu873      Cu  0.86233747  0.34733858  0.13457462     0.42000
Cu874      Cu  0.90688620  0.35618757  0.17469834     0.43900
N875        N  0.87667175  0.37430123  0.21132828    -0.34600
N876        N  0.89637854  0.36457060  0.20680932    -0.28800
C877        C  0.90699969  0.35951669  0.22631333    -0.04900
C878        C  0.89353113  0.36679899  0.24395968     0.07300
C879        C  0.87446400  0.37617885  0.23396482     0.01100
H880        H  0.92283165  0.35028295  0.22753849     0.08700
H881        H  0.85925017  0.38191631  0.24250678     0.07800
N882        N  0.91276058  0.34883245  0.14119489    -0.36000
N883        N  0.89643064  0.34472533  0.12638279    -0.28200
C884        C  0.90577388  0.34166595  0.10580078    -0.03400
C885        C  0.92906928  0.34420051  0.10789018     0.05200
C886        C  0.93287955  0.34879808  0.13052239     0.03300
H887        H  0.89622520  0.33924646  0.09030611     0.08400
H888        H  0.94900485  0.35249674  0.13854582     0.07200
N889        N  0.81870870  0.13392126  0.36960692    -0.27200
N890        N  0.81425809  0.15389214  0.37875017    -0.35000
C891        C  0.79161240  0.15622523  0.38078224     0.01200
C892        C  0.78142052  0.13695380  0.37215521     0.07200
C893        C  0.79904399  0.12320336  0.36515641    -0.05900
H894        H  0.78318675  0.17151098  0.38641556     0.07900
H895        H  0.79768310  0.10693645  0.35678989     0.09100
Cu896      Cu  0.83865662  0.17887828  0.38331188     0.44200
Cu897      Cu  0.85115983  0.12257187  0.36254667     0.42000
Cu898      Cu  0.89431279  0.16579121  0.36031765     0.43900
N899        N  0.86342927  0.20312999  0.37700180    -0.34600
N900        N  0.88310124  0.19853170  0.36717015    -0.28800
C901        C  0.89362937  0.21814881  0.36205201    -0.04900
C902        C  0.88007953  0.23586654  0.36930159     0.07300
C903        C  0.86112932  0.22575885  0.37878902     0.01100
H904        H  0.90970493  0.21942101  0.35323237     0.08700
H905        H  0.84609403  0.23421962  0.38507942     0.07800
N906        N  0.90126150  0.13130155  0.35781790    -0.36000
N907        N  0.88539604  0.11547231  0.35926029    -0.28200
C908        C  0.89530894  0.09494147  0.35919689    -0.03400
C909        C  0.91853729  0.09798961  0.35741349     0.05200
C910        C  0.92172258  0.12122391  0.35641603     0.03300
H911        H  0.88627687  0.07900557  0.36053144     0.08400
H912        H  0.93777941  0.13014615  0.35559143     0.07200
N913        N  0.66877242  0.13162791  0.20289864    -0.27200
N914        N  0.65600741  0.14972975  0.20624987    -0.35000
C915        C  0.65184853  0.15186573  0.22858893     0.01200
C916        C  0.66281512  0.13440648  0.23976675     0.07200
C917        C  0.67345990  0.12196274  0.22301181    -0.05900
H918        H  0.64273274  0.16583572  0.23621581     0.07900
H919        H  0.68400489  0.10711750  0.22527182     0.09100
Cu920      Cu  0.64909469  0.17282388  0.18072178     0.44200
Cu921      Cu  0.67908435  0.12121399  0.17103700     0.42000
Cu922      Cu  0.67875239  0.16310314  0.12686274     0.43900
N923        N  0.65603439  0.19787679  0.15712242    -0.34600
N924        N  0.66840177  0.19483351  0.13861662    -0.28800
C925        C  0.67406059  0.21527498  0.13011276    -0.04900
C926        C  0.66457254  0.23182800  0.14377861     0.07300
C927        C  0.65314911  0.22020409  0.16059700     0.01100
H928        H  0.68509231  0.21788943  0.11566326     0.08700
H929        H  0.64517930  0.22742567  0.17546425     0.07800
N930        N  0.68439619  0.12871002  0.12077388    -0.36000
N931        N  0.68386763  0.11341274  0.13717114    -0.28200
C932        C  0.68511449  0.09257410  0.12805766    -0.03400
C933        C  0.68688277  0.09476694  0.10479941     0.05200
C934        C  0.68644064  0.11792301  0.10071813     0.03300
H935        H  0.68410731  0.07694239  0.13762132     0.08400
H936        H  0.68624235  0.12620932  0.08434053     0.07200
N937        N  0.66720736  0.29307810  0.15050937    -0.27200
N938        N  0.68694479  0.28917250  0.14053828    -0.35000
C939        C  0.68857795  0.26695150  0.13572383     0.01200
C940        C  0.66904244  0.25633562  0.14325878     0.07200
C941        C  0.65589793  0.27334913  0.15264553    -0.05900
H942        H  0.70339651  0.25895874  0.12839725     0.07900
H943        H  0.63943617  0.27150497  0.16061786     0.09100
Cu944      Cu  0.71198667  0.31357582  0.13674978     0.44200
Cu945      Cu  0.65648592  0.32521978  0.16004225     0.42000
Cu946      Cu  0.69831235  0.37030380  0.15450851     0.43900
N947        N  0.73607692  0.33879339  0.14119944    -0.34600
N948        N  0.73133024  0.35923969  0.14904119    -0.28800
C949        C  0.75091547  0.37049066  0.15274338    -0.04900
C950        C  0.76871543  0.35651718  0.14652823     0.07300
C951        C  0.75871732  0.33662100  0.13924235     0.01100
H952        H  0.75209825  0.38746283  0.15959607     0.08700
H953        H  0.76729139  0.32127717  0.13400141     0.07800
N954        N  0.66369604  0.37587047  0.15842803    -0.36000
N955        N  0.64864089  0.35949559  0.16160141    -0.28200
C956        C  0.62784438  0.36873072  0.16366419    -0.03400
C957        C  0.62986555  0.39197491  0.16127900     0.05200
C958        C  0.65281856  0.39591288  0.15798473     0.03300
H959        H  0.61229921  0.35916736  0.16589614     0.08400
H960        H  0.66103872  0.41215062  0.15554343     0.07200
N961        N  0.65848383  0.13260332  0.30130506    -0.27200
N962        N  0.67901697  0.12404509  0.29826522    -0.35000
C963        C  0.68329735  0.12264852  0.27592065     0.01200
C964        C  0.66471587  0.13106397  0.26436354     0.07200
C965        C  0.64930663  0.13731496  0.28092293    -0.05900
H966        H  0.69928170  0.11720106  0.26868615     0.07900
H967        H  0.63280015  0.14496850  0.27837473     0.09100
Cu968      Cu  0.70202593  0.11900018  0.32431406     0.44200
Cu969      Cu  0.64454729  0.13795756  0.33319635     0.42000
Cu970      Cu  0.68676946  0.14523488  0.37726914     0.43900
N971        N  0.72509173  0.12598349  0.34985739    -0.34600
N972        N  0.71984326  0.13740798  0.36840920    -0.28800
C973        C  0.73905151  0.14251048  0.37968827    -0.04900
C974        C  0.75714548  0.13355395  0.36776141     0.07300
C975        C  0.74772222  0.12313128  0.34901574     0.01100
H976        H  0.73979868  0.15232171  0.39517065     0.08700
H977        H  0.75674188  0.11544783  0.33500532     0.07800
N978        N  0.65217881  0.14399043  0.38334133    -0.36000
N979        N  0.63672255  0.14048445  0.36744474    -0.28200
C980        C  0.61630737  0.13773504  0.37737807    -0.03400
C981        C  0.61910149  0.13965775  0.40064564     0.05200
C982        C  0.64203142  0.14379938  0.40374249     0.03300
H983        H  0.60068469  0.13440978  0.36829679     0.08400
H984        H  0.65089553  0.14547469  0.41973708     0.07200
N985        N  0.88191536  0.29759967  0.36750562    -0.27200
N986        N  0.89217525  0.29254714  0.34818208    -0.35000
C987        C  0.89369431  0.26987779  0.34628938     0.01200
C988        C  0.88360504  0.26019083  0.36510474     0.07200
C989        C  0.87619863  0.27820509  0.37816231    -0.05900
H990        H  0.90068629  0.26109581  0.33178020     0.07900
H991        H  0.86743157  0.27729490  0.39426816     0.09100
Cu992      Cu  0.90090301  0.31624347  0.32360616     0.44200
Cu993      Cu  0.87723890  0.33063851  0.37904805     0.42000
Cu994      Cu  0.89060337  0.37415807  0.33810763     0.43900
N995        N  0.90031388  0.34228444  0.29991328    -0.34600
N996        N  0.89505108  0.36338861  0.30524805    -0.28800
C997        C  0.89237509  0.37556933  0.28616918    -0.04900
C998        C  0.89662453  0.36152494  0.26799351     0.07300
C999        C  0.90166621  0.34056726  0.27721276     0.01100
H1000       H  0.88725083  0.39317082  0.28559680     0.08700
H1001       H  0.90456719  0.32492844  0.26808541     0.07800
N1002       N  0.88631650  0.38042852  0.37215914    -0.36000
N1003       N  0.88042979  0.36484906  0.38718314    -0.28200
C1004       C  0.87887511  0.37469562  0.40772719    -0.03400
C1005       C  0.88445301  0.39741938  0.40543886     0.05200
C1006       C  0.88899601  0.40043056  0.38266080     0.03300
H1007       H  0.87464598  0.36586222  0.42325474     0.08400
H1008       H  0.89366211  0.41605938  0.37423542     0.07200
N1009       N  0.22681554  0.36438670  0.14136636    -0.27200
N1010       N  0.23162721  0.37362367  0.16120041    -0.35000
C1011       C  0.25429909  0.37507679  0.16343965     0.01200
C1012       C  0.26414297  0.36596278  0.14423136     0.07200
C1013       C  0.24627924  0.35926674  0.13059043    -0.05900
H1014       H  0.26294867  0.38066803  0.17864147     0.07900
H1015       H  0.24731841  0.35069409  0.11440571     0.09100
Cu1016     Cu  0.20748296  0.37865864  0.18619337     0.44200
Cu1017     Cu  0.19398237  0.35808901  0.13099960     0.42000
Cu1018     Cu  0.15149892  0.35473089  0.17546233     0.43900
N1019       N  0.18386794  0.37193519  0.21133630    -0.34600
N1020       N  0.16418951  0.36166075  0.20774687    -0.28800
C1021       C  0.15465560  0.35673351  0.22793051    -0.04900
C1022       C  0.16889872  0.36458792  0.24491248     0.07300
C1023       C  0.18718681  0.37416766  0.23378660     0.01100
H1024       H  0.13870354  0.34784269  0.23007998     0.08700
H1025       H  0.20242734  0.38103787  0.24143364     0.07800
N1026       N  0.14393661  0.35340578  0.14094758    -0.36000
N1027       N  0.15961182  0.35518991  0.12497811    -0.28200
C1028       C  0.14955172  0.35539218  0.10456058    -0.03400
C1029       C  0.12636171  0.35359341  0.10768080     0.05200
C1030       C  0.12336693  0.35215975  0.13096962     0.03300
H1031       H  0.15857181  0.35658008  0.08862118     0.08400
H1032       H  0.10740454  0.35092246  0.13999589     0.07200
N1033       N  0.37050722  0.12789715  0.20247419    -0.27200
N1034       N  0.38225102  0.14643092  0.20720749    -0.35000
C1035       C  0.38548634  0.14770413  0.22974335     0.01200
C1036       C  0.37496150  0.12929829  0.23972250     0.07200
C1037       C  0.36551191  0.11711895  0.22200731    -0.05900
H1038       H  0.39365652  0.16172703  0.23832776     0.07900
H1039       H  0.35555265  0.10173460  0.22323831     0.09100
Cu1040     Cu  0.38955349  0.17133475  0.18354955     0.44200
Cu1041     Cu  0.36193801  0.11866432  0.16948814     0.42000
Cu1042     Cu  0.36682305  0.16374767  0.12738226     0.43900
N1043       N  0.38631733  0.19750619  0.16038180    -0.34600
N1044       N  0.37657517  0.19515247  0.14030603    -0.28800
C1045       C  0.37367065  0.21584188  0.13105815    -0.04900
C1046       C  0.38226850  0.23185236  0.14596221     0.07300
C1047       C  0.39022119  0.21962267  0.16429477     0.01100
H1048       H  0.36535792  0.21902947  0.11499920     0.08700
H1049       H  0.39687283  0.22638907  0.18000899     0.07800
N1050       N  0.36107049  0.12981601  0.11938682    -0.36000
N1051       N  0.35912553  0.11349951  0.13466747    -0.28200
C1052       C  0.35730429  0.09346161  0.12390706    -0.03400
C1053       C  0.35838521  0.09720564  0.10070561     0.05200
C1054       C  0.36060398  0.12054449  0.09853521     0.03300
H1055       H  0.35649299  0.07721866  0.13240788     0.08400
H1056       H  0.36225453  0.13017086  0.08301464     0.07200
N1057       N  0.21969507  0.13161299  0.37622375    -0.27200
N1058       N  0.22463748  0.15217557  0.38356246    -0.35000
C1059       C  0.24734146  0.15444958  0.38482370     0.01200
C1060       C  0.25707425  0.13444048  0.37751925     0.07200
C1061       C  0.23909641  0.12034591  0.37213060    -0.05900
H1062       H  0.25606442  0.17021479  0.38837364     0.07900
H1063       H  0.24004019  0.10370914  0.36447201     0.09100
Cu1064     Cu  0.20062971  0.17764980  0.38472224     0.44200
Cu1065     Cu  0.18684671  0.12153318  0.36920042     0.42000
Cu1066     Cu  0.14654604  0.16643250  0.35602364     0.43900
N1067       N  0.17804953  0.20258354  0.37484951    -0.34600
N1068       N  0.15933516  0.19907477  0.36286892    -0.28800
C1069       C  0.15042649  0.21942546  0.35726640    -0.04900
C1070       C  0.16402995  0.23631564  0.36654114     0.07300
C1071       C  0.18129258  0.22496615  0.37753281     0.01100
H1072       H  0.13509358  0.22176483  0.34740956     0.08700
H1073       H  0.19570716  0.23243474  0.38615150     0.07800
N1074       N  0.13807171  0.13175271  0.35694254    -0.36000
N1075       N  0.15283975  0.11584432  0.36266051    -0.28200
C1076       C  0.14222267  0.09569678  0.36370485    -0.03400
C1077       C  0.11963582  0.09875537  0.35810730     0.05200
C1078       C  0.11757876  0.12187400  0.35386644     0.03300
H1079       H  0.15043189  0.07990229  0.36815403     0.08400
H1080       H  0.10218198  0.13095755  0.34967462     0.07200
N1081       N  0.37828729  0.12589763  0.30119611    -0.27200
N1082       N  0.35680349  0.12016360  0.29791765    -0.35000
C1083       C  0.35264328  0.11935034  0.27547959     0.01200
C1084       C  0.37236987  0.12520229  0.26416268     0.07200
C1085       C  0.38824025  0.12939739  0.28094836    -0.05900
H1086       H  0.33612940  0.11622964  0.26802143     0.07900
H1087       H  0.40559292  0.13503652  0.27863637     0.09100
Cu1088     Cu  0.33331078  0.11785895  0.32406714     0.44200
Cu1089     Cu  0.39259821  0.12957857  0.33316362     0.42000
Cu1090     Cu  0.35190293  0.14092551  0.37777810     0.43900
N1091       N  0.31172285  0.12448368  0.35106909    -0.34600
N1092       N  0.31825447  0.13470905  0.36993464    -0.28800
C1093       C  0.29986094  0.13928250  0.38266729    -0.04900
C1094       C  0.28096026  0.13112403  0.37142103     0.07300
C1095       C  0.28904111  0.12183375  0.35150094     0.01100
H1096       H  0.30022411  0.14802899  0.39879041     0.08700
H1097       H  0.27905465  0.11492552  0.33772408     0.07800
N1098       N  0.38642023  0.13756444  0.38319474    -0.36000
N1099       N  0.40125719  0.13247036  0.36716361    -0.28200
C1100       C  0.42182544  0.12953547  0.37671667    -0.03400
C1101       C  0.41977836  0.13307768  0.39985460     0.05200
C1102       C  0.39712385  0.13823147  0.40329261     0.03300
H1103       H  0.43713448  0.12548290  0.36742439     0.08400
H1104       H  0.38887565  0.14167112  0.41932444     0.07200
N1105       N  0.16740132  0.29804569  0.36942737    -0.27200
N1106       N  0.15629691  0.29535829  0.35010814    -0.35000
C1107       C  0.15236825  0.27312333  0.34665615     0.01200
C1108       C  0.16172577  0.26114325  0.36450289     0.07200
C1109       C  0.17115786  0.27746477  0.37859960    -0.05900
H1110       H  0.14476878  0.26612305  0.33148096     0.07900
H1111       H  0.18064922  0.27453812  0.39404451     0.09100
Cu1112     Cu  0.15171395  0.32136532  0.32701490     0.44200
Cu1113     Cu  0.17816948  0.32972474  0.38138565     0.42000
Cu1114     Cu  0.18286384  0.37358752  0.33890243     0.43900
N1115       N  0.15930617  0.34558731  0.30277448    -0.34600
N1116       N  0.17202801  0.36369883  0.30664191    -0.28800
C1117       C  0.17687812  0.37365713  0.28665285    -0.04900
C1118       C  0.16647042  0.36136912  0.26953626     0.07300
C1119       C  0.15542412  0.34376880  0.28036778     0.01100
H1120       H  0.18758469  0.38845504  0.28468650     0.08700
H1121       H  0.14651088  0.32980463  0.27244715     0.07800
N1122       N  0.18888300  0.37939343  0.37333661    -0.36000
N1123       N  0.18665329  0.36339184  0.38891033    -0.28200
C1124       C  0.18939404  0.37276795  0.40956126    -0.03400
C1125       C  0.19377079  0.39577886  0.40700134     0.05200
C1126       C  0.19331710  0.39930683  0.38370629     0.03300
H1127       H  0.18769130  0.36359801  0.42536997     0.08400
H1128       H  0.19473058  0.41538143  0.37497829     0.07200
N1129       N  0.38488317  0.29331396  0.15140776    -0.27200
N1130       N  0.36665033  0.29100184  0.13843517    -0.35000
C1131       C  0.36363014  0.26890528  0.13363603     0.01200
C1132       C  0.38051913  0.25668034  0.14435281     0.07200
C1133       C  0.39364752  0.27264194  0.15552887    -0.05900
H1134       H  0.34933321  0.26212997  0.12428141     0.07900
H1135       H  0.40828877  0.26944306  0.16616192     0.09100
Cu1136     Cu  0.34395947  0.31694208  0.13123723     0.44200
Cu1137     Cu  0.39725876  0.32440505  0.16295141     0.42000
Cu1138     Cu  0.35768825  0.37009993  0.15679841     0.43900
N1139       N  0.32048158  0.34281930  0.13536021    -0.34600
N1140       N  0.32542583  0.36179032  0.14620097    -0.28800
C1141       C  0.30623006  0.37343480  0.15004595    -0.04900
C1142       C  0.28835946  0.36136136  0.14089981     0.07300
C1143       C  0.29792817  0.34206873  0.13161986     0.01100
H1144       H  0.30527436  0.38906323  0.15959484     0.08700
H1145       H  0.28898440  0.32771506  0.12446777     0.07800
N1146       N  0.39155864  0.37499100  0.16401901    -0.36000
N1147       N  0.40627260  0.35835840  0.16706787    -0.28200
C1148       C  0.42712726  0.36740691  0.16997724    -0.03400
C1149       C  0.42530419  0.39079875  0.16836374     0.05200
C1150       C  0.40254066  0.39493160  0.16453516     0.03300
H1151       H  0.44260878  0.35766948  0.17161877     0.08400
H1152       H  0.39462523  0.41121759  0.16158138     0.07200
O1153       O  0.55164057  0.46654201  0.18426259    -0.72800
O1154       O  0.50338861  0.51504244  0.18653669    -0.73800
O1155       O  0.50356608  0.46665117  0.18560477    -0.62400
O1156       O  0.55200266  0.51495333  0.18518961    -0.70800
O1157       O  0.55173502  0.51476963  0.14756636    -0.70400
O1158       O  0.50198554  0.46823175  0.14805079    -0.61600
O1159       O  0.50350053  0.51650379  0.14895669    -0.74200
O1160       O  0.55031507  0.46705430  0.14665482    -0.72900
Cu1161     Cu  0.52767342  0.49080074  0.18673133     1.04600
Cu1162     Cu  0.52679635  0.49167195  0.14652757     1.04300
C1163       C  0.55852086  0.45911894  0.16508594     0.93400
C1164       C  0.49591549  0.52354051  0.16801471     0.92500
C1165       C  0.49513046  0.45981658  0.16683491     0.84700
C1166       C  0.55978196  0.52220328  0.16626293     0.90900
O1167       O  0.17009763  0.51770836  0.48516705    -0.72800
O1168       O  0.17361148  0.47027251  0.53356408    -0.73800
O1169       O  0.16876174  0.51823439  0.53327147    -0.62400
O1170       O  0.17471242  0.46981921  0.48571956    -0.70800
O1171       O  0.21215294  0.47415337  0.48516159    -0.70400
O1172       O  0.20631712  0.52073429  0.53554304    -0.61600
O1173       O  0.21119225  0.47276730  0.53387091    -0.74200
O1174       O  0.20742486  0.52241505  0.48694581    -0.72900
Cu1175     Cu  0.17055278  0.49391323  0.50940798     1.04600
Cu1176     Cu  0.21063011  0.49768438  0.51040905     1.04300
C1177       C  0.18815555  0.52764408  0.47836512     0.93400
C1178       C  0.19284571  0.46372880  0.54120709     0.92500
C1179       C  0.18655845  0.52687948  0.54220222     0.84700
C1180       C  0.19416826  0.46431974  0.47784607     0.90900
O1181       O  0.49603964  0.14956297  0.47795821    -0.72800
O1182       O  0.54192346  0.14850985  0.52824090    -0.73800
O1183       O  0.54422764  0.15011052  0.48020477    -0.62400
O1184       O  0.49381627  0.14818638  0.52554948    -0.70800
O1185       O  0.49476477  0.11059863  0.52534873    -0.70400
O1186       O  0.54391571  0.11256155  0.47769318    -0.61600
O1187       O  0.54339842  0.11099572  0.52602074    -0.74200
O1188       O  0.49589066  0.11194686  0.47699636    -0.72900
Cu1189     Cu  0.51903339  0.15036489  0.50302769     1.04600
Cu1190     Cu  0.51952409  0.11017140  0.50151963     1.04300
C1191       C  0.48850838  0.13097746  0.46973771     0.93400
C1192       C  0.55002801  0.12958829  0.53500592     0.92500
C1193       C  0.55180716  0.13179645  0.47150739     0.84700
C1194       C  0.48623427  0.12917224  0.53262915     0.90900
O1195       O  0.90210911  0.52664763  0.52603793    -0.72800
O1196       O  0.90272183  0.47678877  0.47982786    -0.73800
O1197       O  0.90148454  0.52472611  0.47762158    -0.62400
O1198       O  0.90312158  0.47866613  0.52801471    -0.70800
O1199       O  0.86544231  0.47685441  0.52738748    -0.70400
O1200       O  0.86382382  0.52484399  0.47933274    -0.61600
O1201       O  0.86501823  0.47647408  0.47971382    -0.74200
O1202       O  0.86448250  0.52466166  0.52791904    -0.72900
Cu1203     Cu  0.90368081  0.50179798  0.50284275     1.04600
Cu1204     Cu  0.86337872  0.50076491  0.50354763     1.04300
C1205       C  0.88332086  0.53295891  0.53485944     0.93400
C1206       C  0.88395402  0.46861749  0.47259293     0.92500
C1207       C  0.88232313  0.53210855  0.47056522     0.84700
C1208       C  0.88448119  0.47021947  0.53533180     0.90900
O1209       O  0.53826448  0.83925909  0.48032882    -0.72800
O1210       O  0.49035624  0.83862024  0.52892996    -0.73800
O1211       O  0.53887756  0.83664521  0.52816612    -0.62400
O1212       O  0.48968859  0.84128921  0.48085366    -0.70800
O1213       O  0.48898910  0.80379100  0.47801579    -0.70400
O1214       O  0.53659214  0.79911025  0.52726925    -0.61600
O1215       O  0.48795179  0.80125168  0.52637608    -0.74200
O1216       O  0.53720258  0.80170593  0.47862321    -0.72900
Cu1217     Cu  0.51433277  0.84022522  0.50466603     1.04600
Cu1218     Cu  0.51262019  0.80013842  0.50254427     1.04300
C1219       C  0.54545333  0.82063477  0.47191362     0.93400
C1220       C  0.48126703  0.81991633  0.53515394     0.92500
C1221       C  0.54555032  0.81724520  0.53515660     0.84700
C1222       C  0.48181433  0.82326060  0.47172168     0.90900
O1223       O  0.55401337  0.51879239  0.82037199    -0.72800
O1224       O  0.50571911  0.46962844  0.82054478    -0.73800
O1225       O  0.50581364  0.51822948  0.82022517    -0.62400
O1226       O  0.55416247  0.46982108  0.82055063    -0.70800
O1227       O  0.55444005  0.47068958  0.85819609    -0.70400
O1228       O  0.50544737  0.51796618  0.85785977    -0.61600
O1229       O  0.50591511  0.47013335  0.85816373    -0.74200
O1230       O  0.55358938  0.51875449  0.85796641    -0.72900
Cu1231     Cu  0.52996755  0.49407965  0.81906329     1.04600
Cu1232     Cu  0.52988358  0.49434867  0.85929704     1.04300
C1233       C  0.56114126  0.52676428  0.83928276     0.93400
C1234       C  0.49798706  0.46241817  0.83952207     0.92500
C1235       C  0.49800262  0.52568553  0.83902630     0.84700
C1236       C  0.56191963  0.46267269  0.83951017     0.90900
O1237       O  0.04294398  0.97296315  0.33463877    -0.72800
O1238       O  0.99530120  0.02164495  0.33682736    -0.73800
O1239       O  0.04335663  0.02121130  0.33690798    -0.62400
O1240       O  0.99437416  0.97339625  0.33459460    -0.70800
O1241       O  0.99319220  0.97270619  0.37220619    -0.70400
O1242       O  0.04408689  0.01859921  0.37441814    -0.61600
O1243       O  0.99549859  0.02046049  0.37444249    -0.74200
O1244       O  0.04177549  0.97021976  0.37212294    -0.72900
Cu1245     Cu  0.01901661  0.99731969  0.33445509     1.04600
Cu1246     Cu  0.01869770  0.99540345  0.37461976     1.04300
C1247       C  0.04985974  0.96380226  0.35303410     0.93400
C1248       C  0.98796057  0.02883302  0.35590530     0.92500
C1249       C  0.05144028  0.02750826  0.35602387     0.84700
C1250       C  0.98564053  0.96596199  0.35302849     0.90900
O1251       O  0.99178906  0.02387198  0.64309668    -0.72800
O1252       O  0.03742402  0.97334313  0.64224970    -0.73800
O1253       O  0.98908873  0.97596846  0.64192502    -0.62400
O1254       O  0.03978540  0.02158728  0.64326802    -0.70800
O1255       O  0.03844864  0.02229746  0.68082236    -0.70400
O1256       O  0.99033512  0.97350524  0.67945494    -0.61600
O1257       O  0.03884535  0.97399297  0.67984369    -0.74200
O1258       O  0.99018661  0.02171418  0.68062248    -0.72900
Cu1259     Cu  0.01455396  0.99869299  0.64133554     1.04600
Cu1260     Cu  0.01445591  0.99781843  0.68151230     1.04300
C1261       C  0.98358190  0.03060493  0.66198873     0.93400
C1262       C  0.04562489  0.96591694  0.66091427     0.92500
C1263       C  0.98173651  0.96745740  0.66046031     0.84700
C1264       C  0.04684099  0.02955122  0.66216008     0.90900
O1265       O  0.38548758  0.02081251  0.97675780    -0.72800
O1266       O  0.38895259  0.97302842  0.02582093    -0.73800
O1267       O  0.38995627  0.97258219  0.97748606    -0.62400
O1268       O  0.38423734  0.02142622  0.02492233    -0.70800
O1269       O  0.34689976  0.01610973  0.02583476    -0.70400
O1270       O  0.35235623  0.97113205  0.97505741    -0.61600
O1271       O  0.35172474  0.96781312  0.02313364    -0.74200
O1272       O  0.34789014  0.01917419  0.97749267    -0.72900
Cu1273     Cu  0.38847064  0.99709005  0.00131026     1.04600
Cu1274     Cu  0.34841448  0.99343282  0.00038809     1.04300
C1275       C  0.36621211  0.02787073  0.96961146     0.93400
C1276       C  0.37095008  0.96236086  0.03171278     0.92500
C1277       C  0.37191947  0.96446370  0.96849140     0.84700
C1278       C  0.36466524  0.02636541  0.03292891     0.90900
O1279       O  0.00442310  0.32946130  0.98021602    -0.72800
O1280       O  0.05117850  0.33052050  0.02990508    -0.73800
O1281       O  0.00326467  0.32902488  0.02833965    -0.62400
O1282       O  0.05250126  0.33074978  0.98157890    -0.70800
O1283       O  0.04951604  0.36825326  0.98000707    -0.70400
O1284       O  0.00394297  0.36660514  0.03017416    -0.61600
O1285       O  0.05178292  0.36812114  0.02812852    -0.74200
O1286       O  0.00170391  0.36693698  0.98230490    -0.72900
Cu1287     Cu  0.02790514  0.32858560  0.00499153     1.04600
Cu1288     Cu  0.02672969  0.36878629  0.00515722     1.04300
C1289       C  0.99540848  0.34808136  0.97373185     0.93400
C1290       C  0.05886307  0.34958486  0.03680173     0.92500
C1291       C  0.99621419  0.34755458  0.03701971     0.84700
C1292       C  0.05825894  0.34976608  0.97293031     0.90900
O1293       O  0.69973758  0.96579284  0.02923578    -0.72800
O1294       O  0.70180920  0.01547140  0.98255403    -0.73800
O1295       O  0.70191563  0.01426556  0.03058216    -0.62400
O1296       O  0.69956097  0.96741255  0.98101058    -0.70800
O1297       O  0.66192755  0.96939059  0.98082062    -0.70400
O1298       O  0.66424786  0.01563230  0.03114197    -0.61600
O1299       O  0.66421420  0.01735035  0.98273270    -0.74200
O1300       O  0.66207227  0.96751886  0.02970952    -0.72900
Cu1301     Cu  0.70202912  0.99063606  0.00589369     1.04600
Cu1302     Cu  0.66178357  0.99247632  0.00614123     1.04300
C1303       C  0.68064806  0.95890397  0.03697404     0.93400
C1304       C  0.68339870  0.02425257  0.97515801     0.92500
C1305       C  0.68348165  0.02250498  0.03854869     0.84700
C1306       C  0.68041291  0.96140196  0.97269069     0.90900
O1307       O  0.00319299  0.64725411  0.02580412    -0.72800
O1308       O  0.05480522  0.64460020  0.98163981    -0.73800
O1309       O  0.05125951  0.64429397  0.02965805    -0.62400
O1310       O  0.00660985  0.64762618  0.97795021    -0.70800
O1311       O  0.00673901  0.68515675  0.98018751    -0.70400
O1312       O  0.05551591  0.68163904  0.02850603    -0.61600
O1313       O  0.05518570  0.68221718  0.98009135    -0.74200
O1314       O  0.00695498  0.68459825  0.02838975    -0.72900
Cu1315     Cu  0.02891307  0.64465184  0.00374459     1.04600
Cu1316     Cu  0.03122408  0.68474448  0.00430043     1.04300
C1317       C  0.99695993  0.66622641  0.03416154     0.93400
C1318       C  0.06285928  0.66303273  0.97358854     0.92500
C1319       C  0.06074719  0.66236928  0.03701250     0.84700
C1320       C  0.99912115  0.66686945  0.97132675     0.90900
C1321       C  0.44374479  0.40779206  0.16777483    -0.05300
C1322       C  0.44372546  0.42436225  0.15068012    -0.32800
C1323       C  0.46049719  0.44118176  0.14999658     0.36500
C1324       C  0.47744507  0.44193926  0.16689161    -0.05700
C1325       C  0.47738487  0.42537855  0.18406785    -0.32700
C1326       C  0.46090713  0.40817800  0.18437292     0.36400
H1327       H  0.43066886  0.42421581  0.13771217     0.16700
O1328       O  0.45990152  0.45699814  0.13293988    -0.60200
H1329       H  0.49028567  0.42562985  0.19718452     0.16800
O1330       O  0.46105937  0.39250533  0.20156699    -0.60300
H1331       H  0.47224829  0.38088903  0.19682389     0.43800
H1332       H  0.45095835  0.46984196  0.13914821     0.43700
C1333       C  0.19517082  0.41312549  0.42536478    -0.05300
C1334       C  0.18171196  0.41044809  0.44486194    -0.32800
C1335       C  0.18166648  0.42679784  0.46207828     0.36500
C1336       C  0.19548508  0.44625648  0.46033323    -0.05700
C1337       C  0.20966854  0.44863168  0.44129682    -0.32700
C1338       C  0.20931491  0.43244406  0.42371357     0.36400
H1339       H  0.17067302  0.39583727  0.44656956     0.16700
O1340       O  0.16792478  0.42358804  0.48060239    -0.60200
H1341       H  0.22051290  0.46340832  0.43970296     0.16800
O1342       O  0.22330513  0.43534679  0.40532985    -0.60300
H1343       H  0.21590565  0.44719223  0.39595391     0.43800
H1344       H  0.17772560  0.41618985  0.49211538     0.43700
C1345       C  0.43774087  0.13233031  0.41735502    -0.05300
C1346       C  0.43720751  0.14819062  0.43506792    -0.32800
C1347       C  0.45382843  0.14809737  0.45199965     0.36500
C1348       C  0.47103966  0.13154198  0.45179566    -0.05700
C1349       C  0.47137940  0.11536856  0.43433324    -0.32700
C1350       C  0.45509090  0.11588293  0.41697352     0.36400
H1351       H  0.42397070  0.16092891  0.43567105     0.16700
O1352       O  0.45249893  0.16364236  0.46924308    -0.60200
H1353       H  0.48446390  0.10245983  0.43399400     0.16800
O1354       O  0.45563527  0.09960367  0.40038043    -0.60300
H1355       H  0.46798755  0.10432968  0.38995060     0.43800
H1356       H  0.45948367  0.17766851  0.46308628     0.43700
C1357       C  0.10179723  0.08090460  0.35766298    -0.05300
C1358       C  0.10200043  0.06364990  0.37414021    -0.32800
C1359       C  0.08576481  0.04620898  0.37387255     0.36500
C1360       C  0.06904978  0.04557548  0.35673876    -0.05700
C1361       C  0.06909714  0.06262795  0.34005128    -0.32700
C1362       C  0.08508465  0.08030935  0.34057695     0.36400
H1363       H  0.11475255  0.06374164  0.38740137     0.16700
O1364       O  0.08664723  0.02969613  0.39024403    -0.60200
H1365       H  0.05648531  0.06243371  0.32665649     0.16800
O1366       O  0.08491218  0.09628236  0.32366372    -0.60300
H1367       H  0.07241219  0.10679703  0.32765522     0.43800
H1368       H  0.09649029  0.01766492  0.38382642     0.43700
C1369       C  0.35923936  0.07961292  0.08263898    -0.05300
C1370       C  0.34754622  0.05901186  0.08571053    -0.32800
C1371       C  0.34896150  0.04161679  0.06956365     0.36500
C1372       C  0.36255729  0.04444719  0.05012552    -0.05700
C1373       C  0.37424605  0.06493500  0.04699609    -0.32700
C1374       C  0.37240519  0.08256739  0.06281953     0.36400
H1375       H  0.33724269  0.05635726  0.10070590     0.16700
O1376       O  0.33740047  0.02173360  0.07320201    -0.60200
H1377       H  0.38472766  0.06737531  0.03207435     0.16800
O1378       O  0.38453484  0.10210986  0.05925985    -0.60300
H1379       H  0.37590064  0.11057928  0.04753784     0.43800
H1380       H  0.34842420  0.01160024  0.08089091     0.43700
C1381       C  0.07598176  0.35038872  0.05501591    -0.05300
C1382       C  0.09391659  0.36597370  0.05350346    -0.32800
C1383       C  0.11044119  0.36717635  0.07052703     0.36500
C1384       C  0.10877884  0.35309893  0.08979681    -0.05700
C1385       C  0.09040843  0.33801455  0.09165550    -0.32700
C1386       C  0.07425319  0.33634445  0.07427139     0.36400
H1387       H  0.09528338  0.37709336  0.03892131     0.16700
O1388       O  0.12757130  0.38287549  0.06865916    -0.60200
H1389       H  0.08883407  0.32715053  0.10640121     0.16800
O1390       O  0.05631704  0.32166377  0.07669952    -0.60300
H1391       H  0.06217870  0.30671358  0.07172703     0.43800
H1392       H  0.13792855  0.37685017  0.05685510     0.43700
C1393       C  0.88505907  0.41496579  0.42325951    -0.05300
C1394       C  0.86759583  0.41590602  0.43939719    -0.32800
C1395       C  0.86691967  0.43338136  0.45544851     0.36500
C1396       C  0.88423618  0.44993711  0.45589217    -0.05700
C1397       C  0.90216665  0.44845829  0.44025451    -0.32700
C1398       C  0.90258859  0.43125624  0.42393721     0.36400
H1399       H  0.85409986  0.40339004  0.43919707     0.16700
O1400       O  0.84965219  0.43370006  0.47107093    -0.60200
H1401       H  0.91572534  0.46090952  0.44042711     0.16800
O1402       O  0.92030361  0.43044850  0.40883800    -0.60300
H1403       H  0.93149868  0.41993165  0.41571370     0.43800
H1404       H  0.83667534  0.44097969  0.46319558     0.43700
C1405       C  0.60180772  0.13715085  0.41868680    -0.05300
C1406       C  0.60324840  0.15093339  0.43803408    -0.32800
C1407       C  0.58724930  0.14909461  0.45546414     0.36500
C1408       C  0.56956865  0.13306780  0.45390644    -0.05700
C1409       C  0.56847114  0.11877412  0.43491912    -0.32700
C1410       C  0.58425281  0.12091513  0.41721994     0.36400
H1411       H  0.61667745  0.16343084  0.43952529     0.16700
O1412       O  0.58913688  0.16297061  0.47403399    -0.60200
H1413       H  0.55503008  0.10626973  0.43354624     0.16800
O1414       O  0.58292236  0.10645498  0.39905602    -0.60300
H1415       H  0.57015466  0.11220203  0.38970453     0.43800
H1416       H  0.59775063  0.15402092  0.48539143     0.43700
C1417       C  0.61138845  0.40889200  0.16185464    -0.05300
C1418       C  0.59491405  0.40778238  0.17902051    -0.32800
C1419       C  0.57772654  0.42415259  0.18045026     0.36500
C1420       C  0.57638431  0.44153115  0.16407944    -0.05700
C1421       C  0.59250052  0.44220458  0.14651846    -0.32700
C1422       C  0.61001430  0.42619724  0.14544574     0.36400
H1423       H  0.59565939  0.39445255  0.19165638     0.16700
O1424       O  0.56188902  0.42256293  0.19744589    -0.60200
H1425       H  0.59174453  0.45543019  0.13377196     0.16800
O1426       O  0.62552945  0.42746762  0.12812992    -0.60300
H1427       H  0.61928601  0.41768965  0.11593680     0.43800
H1428       H  0.56914515  0.42966526  0.21087199     0.43700
C1429       C  0.68449149  0.04055010  0.05599586    -0.05300
C1430       C  0.70182699  0.05694766  0.05495974    -0.32800
C1431       C  0.70266516  0.07480666  0.07062342     0.36500
C1432       C  0.68632605  0.07621249  0.08797051    -0.05700
C1433       C  0.66934453  0.05953367  0.08940559    -0.32700
C1434       C  0.66809303  0.04203265  0.07336579     0.36400
H1435       H  0.71452765  0.05616900  0.04167738     0.16700
O1436       O  0.71965858  0.09065889  0.06898134    -0.60200
H1437       H  0.65673693  0.06032274  0.10277796     0.16800
O1438       O  0.65124094  0.02605096  0.07527306    -0.60300
H1439       H  0.63766939  0.03301085  0.06814069     0.43800
H1440       H  0.73211993  0.08482907  0.07868810     0.43700
C1441       C  0.93627290  0.08032201  0.35733373    -0.05300
C1442       C  0.95330902  0.08091768  0.34073524    -0.32800
C1443       C  0.97017503  0.06421685  0.34005671     0.36500
C1444       C  0.97048655  0.04682112  0.35647800    -0.05700
C1445       C  0.95368213  0.04652024  0.37339861    -0.32700
C1446       C  0.93651538  0.06296327  0.37375845     0.36400
H1447       H  0.95333554  0.09420762  0.32803362     0.16700
O1448       O  0.98636517  0.06516348  0.32334806    -0.60200
H1449       H  0.95361381  0.03325831  0.38613027     0.16800
O1450       O  0.92021578  0.06205403  0.39036724    -0.60300
H1451       H  0.92597724  0.07194034  0.40269773     0.43800
H1452       H  0.99911753  0.07394753  0.32999325     0.43700
C1453       C  0.94602933  0.34490237  0.08959344    -0.05300
C1454       C  0.96257863  0.36203653  0.08968556    -0.32800
C1455       C  0.97881527  0.36331018  0.07245814     0.36500
C1456       C  0.97901297  0.34689815  0.05511789    -0.05700
C1457       C  0.96268333  0.32952129  0.05525938    -0.32700
C1458       C  0.94603681  0.32864578  0.07216957     0.36400
H1459       H  0.96276940  0.37465971  0.10303015     0.16700
O1460       O  0.99500445  0.38005390  0.07328663    -0.60200
H1461       H  0.96266336  0.31671914  0.04208610     0.16800
O1462       O  0.93053549  0.31125693  0.07213996    -0.60300
H1463       H  0.91902806  0.31556293  0.06063169     0.43800
H1464       H  0.98761669  0.39363723  0.06665940     0.43700
C1465       C  0.59730623  0.82212817  0.42018319    -0.05300
C1466       C  0.59828123  0.83708374  0.43867107    -0.32800
C1467       C  0.58137469  0.83692152  0.45540601     0.36500
C1468       C  0.56344657  0.82108477  0.45431153    -0.05700
C1469       C  0.56273052  0.80574290  0.43609136    -0.32700
C1470       C  0.57925082  0.80646425  0.41888857     0.36400
H1471       H  0.61203962  0.84924328  0.43997086     0.16700
O1472       O  0.58303276  0.85173639  0.47325795    -0.60200
H1473       H  0.54909059  0.79343273  0.43496265     0.16800
O1474       O  0.57812796  0.79118930  0.40139743    -0.60300
H1475       H  0.56678385  0.79752804  0.39069489     0.43800
H1476       H  0.57657716  0.86619483  0.46758682     0.43700
C1477       C  0.88086462  0.58115733  0.41637486    -0.05300
C1478       C  0.86483602  0.58218898  0.43395701    -0.32800
C1479       C  0.86482285  0.56605855  0.45141755     0.36500
C1480       C  0.88158340  0.54901465  0.45199358    -0.05700
C1481       C  0.89779511  0.54813221  0.43451885    -0.32700
C1482       C  0.89736754  0.56385760  0.41667558     0.36400
H1483       H  0.85204390  0.59538750  0.43399080     0.16700
O1484       O  0.84889286  0.56765663  0.46831767    -0.60200
H1485       H  0.91071476  0.53505485  0.43456979     0.16800
O1486       O  0.91342713  0.56241160  0.39988131    -0.60300
H1487       H  0.92616320  0.57215579  0.40504239     0.43800
H1488       H  0.83514749  0.56005200  0.46221144     0.43700
C1489       C  0.61334885  0.57186109  0.16273156    -0.05300
C1490       C  0.59749822  0.57264366  0.18049093    -0.32800
C1491       C  0.58040303  0.55614611  0.18234602     0.36500
C1492       C  0.57839706  0.53909795  0.16571646    -0.05700
C1493       C  0.59424003  0.53843184  0.14790697    -0.32700
C1494       C  0.61183819  0.55437320  0.14656028     0.36400
H1495       H  0.59850893  0.58598177  0.19308063     0.16700
O1496       O  0.56514258  0.55747034  0.19986997    -0.60200
H1497       H  0.59306299  0.52540250  0.13500669     0.16800
O1498       O  0.62673891  0.55343445  0.12869203    -0.60300
H1499       H  0.63773217  0.54134620  0.13271868     0.43800
H1500       H  0.57265484  0.54978039  0.21281883     0.43700
C1501       C  0.94270880  0.66638193  0.08301337    -0.05300
C1502       C  0.94200398  0.65174771  0.06426202    -0.32800
C1503       C  0.95942889  0.65178113  0.04817110     0.36500
C1504       C  0.97794703  0.66676354  0.05049437    -0.05700
C1505       C  0.97827945  0.68204242  0.06874005    -0.32700
C1506       C  0.96098617  0.68171497  0.08513171     0.36400
H1507       H  0.92814647  0.63979850  0.06230659     0.16700
O1508       O  0.95814588  0.63709146  0.03018277    -0.60200
H1509       H  0.99226570  0.69386232  0.07062524     0.16800
O1510       O  0.96173982  0.69687952  0.10274690    -0.60300
H1511       H  0.97355131  0.69100306  0.11319975     0.43800
H1512       H  0.95049249  0.64574219  0.01794325     0.43700
C1513       C  0.93100223  0.91708816  0.35081907    -0.05300
C1514       C  0.92985773  0.93580231  0.36552751    -0.32800
C1515       C  0.94758407  0.95173238  0.36648818     0.36500
C1516       C  0.96662576  0.94949570  0.35217145    -0.05700
C1517       C  0.96739168  0.93135161  0.33683898    -0.32700
C1518       C  0.94998895  0.91504973  0.33630687     0.36400
H1519       H  0.91543246  0.93782679  0.37675241     0.16700
O1520       O  0.94574748  0.96990557  0.38087730    -0.60200
H1521       H  0.98177745  0.92953678  0.32551256     0.16800
O1522       O  0.95131053  0.89766717  0.32092268    -0.60300
H1523       H  0.96326689  0.88739623  0.32683293     0.43800
H1524       H  0.95076139  0.96419313  0.39588705     0.43700
C1525       C  0.68105280  0.90676114  0.08837580    -0.05300
C1526       C  0.66636574  0.92545389  0.09028074    -0.32800
C1527       C  0.66572883  0.94229273  0.07346266     0.36500
C1528       C  0.68023902  0.94089589  0.05450865    -0.05700
C1529       C  0.69511478  0.92239756  0.05271871    -0.32700
C1530       C  0.69533552  0.90523534  0.06922221     0.36400
H1531       H  0.65513938  0.92692413  0.10476413     0.16700
O1532       O  0.65120118  0.96028589  0.07597440    -0.60200
H1533       H  0.70650974  0.92113422  0.03833721     0.16800
O1534       O  0.71035316  0.88761319  0.06698980    -0.60300
H1535       H  0.70370515  0.87762958  0.05518203     0.43800
H1536       H  0.66013525  0.97202896  0.08408714     0.43700
C1537       C  0.18672342  0.54520661  0.46038104    -0.05300
C1538       C  0.20412202  0.56143288  0.45813935    -0.32800
C1539       C  0.20298410  0.57830196  0.44139092     0.36500
C1540       C  0.18457185  0.57877322  0.42616664    -0.05700
C1541       C  0.16735727  0.56244028  0.42816596    -0.32700
C1542       C  0.16819868  0.54589161  0.44514966     0.36400
H1543       H  0.21856426  0.56120888  0.46954004     0.16700
O1544       O  0.22042450  0.59362631  0.43939543    -0.60200
H1545       H  0.15300924  0.56265656  0.41663854     0.16800
O1546       O  0.15086319  0.53037777  0.44652242    -0.60300
H1547       H  0.15564847  0.51757804  0.43674660     0.43800
H1548       H  0.21755802  0.60513555  0.45129650     0.43700
C1549       C  0.43142087  0.82895795  0.41885247    -0.05300
C1550       C  0.44968583  0.81383331  0.41662503    -0.32800
C1551       C  0.46583473  0.81145964  0.43396085     0.36500
C1552       C  0.46443001  0.82494996  0.45361493    -0.05700
C1553       C  0.44639008  0.84036724  0.45573465    -0.32700
C1554       C  0.42970610  0.84210876  0.43877068     0.36400
H1555       H  0.45129305  0.80356398  0.40148255     0.16700
O1556       O  0.48353866  0.79664094  0.43106630    -0.60200
H1557       H  0.44506549  0.85090141  0.47072751     0.16800
O1558       O  0.41242393  0.85747912  0.44135144    -0.60300
H1559       H  0.40165108  0.85030688  0.45213294     0.43800
H1560       H  0.47750649  0.78165233  0.43578461     0.43700
C1561       C  0.44428251  0.57555512  0.16680998    -0.05300
C1562       C  0.44447065  0.55932445  0.18426121    -0.32800
C1563       C  0.46151798  0.54268283  0.18530414     0.36500
C1564       C  0.47843525  0.54168841  0.16836446    -0.05700
C1565       C  0.47821911  0.55796016  0.15096978    -0.32700
C1566       C  0.46162188  0.57497180  0.15030190     0.36400
H1567       H  0.43139331  0.55960252  0.19719289     0.16700
O1568       O  0.46115770  0.52720334  0.20266866    -0.60200
H1569       H  0.49104868  0.55755396  0.13779094     0.16800
O1570       O  0.46179602  0.59018118  0.13268941    -0.60300
H1571       H  0.47416315  0.60103768  0.13631402     0.43800
H1572       H  0.45175863  0.51442249  0.19699873     0.43700
C1573       C  0.37517231  0.90814235  0.08114897    -0.05300
C1574       C  0.36127902  0.90591162  0.06187593    -0.32800
C1575       C  0.35962992  0.92347041  0.04581390     0.36500
C1576       C  0.37242989  0.94353247  0.04847950    -0.05700
C1577       C  0.38698169  0.94541905  0.06727873    -0.32700
C1578       C  0.38829732  0.92806958  0.08357341     0.36400
H1579       H  0.35125356  0.89068339  0.05947445     0.16700
O1580       O  0.34610380  0.92048970  0.02709799    -0.60200
H1581       H  0.39715083  0.96058044  0.06953588     0.16800
O1582       O  0.40273168  0.93070565  0.10164752    -0.60300
H1583       H  0.41701300  0.92305072  0.09708499     0.43800
H1584       H  0.33054784  0.92442724  0.03217677     0.43700
C1585       C  0.09994608  0.91039765  0.35169134    -0.05300
C1586       C  0.10019303  0.92739710  0.33503102    -0.32800
C1587       C  0.08379346  0.94466002  0.33500629     0.36500
C1588       C  0.06720907  0.94555847  0.35229351    -0.05700
C1589       C  0.06729756  0.92876211  0.36919424    -0.32700
C1590       C  0.08333372  0.91123039  0.36889430     0.36400
H1591       H  0.11294500  0.92710277  0.32177648     0.16700
O1592       O  0.08466982  0.96102400  0.31848710    -0.60200
H1593       H  0.05473379  0.92908849  0.38262422     0.16800
O1594       O  0.08286487  0.89524518  0.38579350    -0.60300
H1595       H  0.09343445  0.90098162  0.39758213     0.43800
H1596       H  0.07675130  0.95433149  0.30522411     0.43700
C1597       C  0.07759263  0.66079115  0.05572547    -0.05300
C1598       C  0.07418641  0.64487940  0.07312559    -0.32800
C1599       C  0.08960449  0.64295231  0.09117486     0.36500
C1600       C  0.10933715  0.65653300  0.09172676    -0.05700
C1601       C  0.11302720  0.67214942  0.07408007    -0.32700
C1602       C  0.09715144  0.67463334  0.05641068     0.36400
H1603       H  0.05931905  0.63401754  0.07288886     0.16700
O1604       O  0.08578296  0.62692167  0.10760957    -0.60200
H1605       H  0.12812913  0.68268082  0.07414849     0.16800
O1606       O  0.10142597  0.68991060  0.03938529    -0.60300
H1607       H  0.09604102  0.70470158  0.04529279     0.43800
H1608       H  0.07366885  0.63333362  0.11735913     0.43700
C1609       C  0.59944603  0.81638167  0.58482433    -0.05300
C1610       C  0.58051943  0.80202518  0.58740314    -0.32800
C1611       C  0.56318790  0.80146230  0.57097275     0.36500
C1612       C  0.56416024  0.81607484  0.55207380    -0.05700
C1613       C  0.58304461  0.83040732  0.54953948    -0.32700
C1614       C  0.60075573  0.83035533  0.56544442     0.36400
H1615       H  0.57919043  0.79118644  0.60219103     0.16700
O1616       O  0.54480787  0.78750646  0.57418306    -0.60200
H1617       H  0.58410364  0.84172635  0.53508495     0.16800
O1618       O  0.61859249  0.84507315  0.56256904    -0.60300
H1619       H  0.62832758  0.83803461  0.55079139     0.43800
H1620       H  0.54947579  0.77261323  0.56794409     0.43700
C1621       C  0.57824208  0.54534518  0.83998225    -0.05300
C1622       C  0.59244645  0.54726072  0.85905433    -0.32800
C1623       C  0.60860791  0.56461883  0.86067017     0.36500
C1624       C  0.61053672  0.58088408  0.84331969    -0.05700
C1625       C  0.59599355  0.57948294  0.82447745    -0.32700
C1626       C  0.58015914  0.56168203  0.82254197     0.36400
H1627       H  0.59117751  0.53510213  0.87278377     0.16700
O1628       O  0.62180568  0.56613901  0.87979511    -0.60200
H1629       H  0.59718327  0.59199477  0.81106136     0.16800
O1630       O  0.56608242  0.56095607  0.80401051    -0.60300
H1631       H  0.57500602  0.55321793  0.79202982     0.43800
H1632       H  0.63397177  0.55472632  0.87773055     0.43700
C1633       C  0.88363517  0.54962126  0.55355329    -0.05300
C1634       C  0.89892880  0.56783738  0.55269433    -0.32800
C1635       C  0.90033937  0.58335617  0.57057828     0.36500
C1636       C  0.88654755  0.58064912  0.58997724    -0.05700
C1637       C  0.87155417  0.56213814  0.59104981    -0.32700
C1638       C  0.86979784  0.54686520  0.57288587     0.36400
H1639       H  0.90983188  0.57007925  0.53804689     0.16700
O1640       O  0.91559865  0.60088560  0.56905997    -0.60200
H1641       H  0.86087382  0.55973279  0.60582665     0.16800
O1642       O  0.85529492  0.52872187  0.57464203    -0.60300
H1643       H  0.84027724  0.53453604  0.56971666     0.43800
H1644       H  0.92986712  0.59495783  0.57575526     0.43700
C1645       C  0.94495800  0.66833682  0.92193829    -0.05300
C1646       C  0.96285494  0.65273116  0.91984149    -0.32800
C1647       C  0.98062141  0.65219362  0.93567672     0.36500
C1648       C  0.98112881  0.66786631  0.95369914    -0.05700
C1649       C  0.96367032  0.68405018  0.95532977    -0.32700
C1650       C  0.94559359  0.68423397  0.93974892     0.36400
H1651       H  0.96280438  0.64047309  0.90616448     0.16700
O1652       O  0.99775107  0.63666523  0.93301922    -0.60200
H1653       H  0.96373822  0.69624353  0.96906601     0.16800
O1654       O  0.92873863  0.70010427  0.94201088    -0.60300
H1655       H  0.93356417  0.71302232  0.93235254     0.43800
H1656       H  0.99169995  0.62231486  0.93939848     0.43700
C1657       C  0.68004807  0.91459424  0.91637417    -0.05300
C1658       C  0.66373753  0.93191831  0.91763644    -0.32800
C1659       C  0.66333478  0.94696259  0.93609021     0.36500
C1660       C  0.67983454  0.94527032  0.95338436    -0.05700
C1661       C  0.69651482  0.92835660  0.95175715    -0.32700
C1662       C  0.69651564  0.91291158  0.93368228     0.36400
H1663       H  0.65093746  0.93351540  0.90452129     0.16700
O1664       O  0.64731457  0.96382712  0.93656381    -0.60200
H1665       H  0.70949748  0.92690727  0.96471665     0.16800
O1666       O  0.71328499  0.89681004  0.93259600    -0.60300
H1667       H  0.70928529  0.88543058  0.94433738     0.43800
H1668       H  0.63352045  0.95666889  0.94308163     0.43700
C1669       C  0.92920236  0.91648614  0.65819372    -0.05300
C1670       C  0.92835337  0.93522147  0.64350517    -0.32800
C1671       C  0.94529470  0.95196860  0.64411785     0.36500
C1672       C  0.96326779  0.95038781  0.65988179    -0.05700
C1673       C  0.96363978  0.93212502  0.67512348    -0.32700
C1674       C  0.94701912  0.91509271  0.67415468     0.36400
H1675       H  0.91481435  0.93661369  0.63112519     0.16700
O1676       O  0.94405582  0.96985795  0.62928960    -0.60200
H1677       H  0.97718391  0.93074283  0.68750518     0.16800
O1678       O  0.94790845  0.89754451  0.68941351    -0.60300
H1679       H  0.96056977  0.88776193  0.68420684     0.43800
H1680       H  0.93583706  0.98192148  0.63763539     0.43700
C1681       C  0.42767154  0.82211315  0.58524331    -0.05300
C1682       C  0.43152388  0.80213031  0.57301837    -0.32800
C1683       C  0.44908704  0.80093770  0.55692220     0.36500
C1684       C  0.46284423  0.82015218  0.55251885    -0.05700
C1685       C  0.45859688  0.84020791  0.56473122    -0.32700
C1686       C  0.44135628  0.84118677  0.58106008     0.36400
H1687       H  0.42105633  0.78732691  0.57615421     0.16700
O1688       O  0.45221995  0.78108304  0.54525563    -0.60200
H1689       H  0.46875507  0.85524595  0.56174699     0.16800
O1690       O  0.43759165  0.86109086  0.59246797    -0.60300
H1691       H  0.44770847  0.86045413  0.60589812     0.43800
H1692       H  0.46203776  0.77166276  0.55516879     0.43700
C1693       C  0.17946746  0.57864649  0.59341727    -0.05300
C1694       C  0.19529667  0.56104710  0.59628045    -0.32800
C1695       C  0.19785297  0.54412983  0.57971726     0.36500
C1696       C  0.18411868  0.54430772  0.56013575    -0.05700
C1697       C  0.16766608  0.56133965  0.55772038    -0.32700
C1698       C  0.16534391  0.57844024  0.57404689     0.36400
H1699       H  0.20610567  0.56067230  0.61115307     0.16700
O1700       O  0.21322446  0.52702218  0.58322107    -0.60200
H1701       H  0.15676750  0.56159625  0.54290060     0.16800
O1702       O  0.14899916  0.59470681  0.57096075    -0.60300
H1703       H  0.13543167  0.58897501  0.57914661     0.43800
H1704       H  0.22804455  0.53326989  0.57821711     0.43700
C1705       C  0.44770193  0.57848805  0.83919583    -0.05300
C1706       C  0.44689636  0.56115338  0.85548530    -0.32800
C1707       C  0.46321414  0.54392798  0.85566385     0.36500
C1708       C  0.48041845  0.54354525  0.83903380    -0.05700
C1709       C  0.48095655  0.56066874  0.82246620    -0.32700
C1710       C  0.46499452  0.57829201  0.82271902     0.36400
H1711       H  0.43375379  0.56116078  0.86835982     0.16700
O1712       O  0.46206345  0.52746054  0.87206920    -0.60200
H1713       H  0.49407221  0.56065179  0.80956594     0.16800
O1714       O  0.46591046  0.59476517  0.80631091    -0.60300
H1715       H  0.47778898  0.60552160  0.81149824     0.43800
H1716       H  0.45297272  0.51505207  0.86523792     0.43700
C1717       C  0.11724543  0.66028965  0.92513870    -0.05300
C1718       C  0.09785497  0.67347100  0.92077342    -0.32800
C1719       C  0.08013101  0.67468827  0.93655616     0.36500
C1720       C  0.08133194  0.66212607  0.95679078    -0.05700
C1721       C  0.10041061  0.64853942  0.96099811    -0.32700
C1722       C  0.11847468  0.64782314  0.94552735     0.36400
H1723       H  0.09651385  0.68305710  0.90514868     0.16700
O1724       O  0.06123347  0.68735413  0.93159645    -0.60200
H1725       H  0.10144101  0.63867439  0.97648139     0.16800
O1726       O  0.13667906  0.63401634  0.94997930    -0.60300
H1727       H  0.14576647  0.64218651  0.96156045     0.43800
H1728       H  0.06521176  0.70307422  0.93604779     0.43700
C1729       C  0.06290083  0.94770588  0.66052605    -0.05300
C1730       C  0.06143390  0.93058308  0.64407294    -0.32800
C1731       C  0.07737339  0.91296464  0.64340618     0.36500
C1732       C  0.09565951  0.91269664  0.65886087    -0.05700
C1733       C  0.09734980  0.93001555  0.67508979    -0.32700
C1734       C  0.08093056  0.94719196  0.67627728     0.36400
H1735       H  0.04769989  0.93069614  0.63182140     0.16700
O1736       O  0.07555768  0.89672940  0.62685478    -0.60200
H1737       H  0.11131945  0.93008740  0.68706981     0.16800
O1738       O  0.08323016  0.96394030  0.69224292    -0.60300
H1739       H  0.07662946  0.95752130  0.70633963     0.43800
H1740       H  0.06319881  0.88650200  0.63199526     0.43700
C1741       C  0.37553471  0.91235344  0.91757255    -0.05300
C1742       C  0.35944029  0.92978496  0.91577591    -0.32800
C1743       C  0.35813402  0.94682858  0.93223480     0.36500
C1744       C  0.37353927  0.94705902  0.95053698    -0.05700
C1745       C  0.39015131  0.93005511  0.95196211    -0.32700
C1746       C  0.39109757  0.91266904  0.93578232     0.36400
H1747       H  0.34744555  0.92991629  0.90182884     0.16700
O1748       O  0.34215503  0.96358599  0.92991426    -0.60200
H1749       H  0.40211853  0.92996220  0.96593759     0.16800
O1750       O  0.40741655  0.89621512  0.93784626    -0.60300
H1751       H  0.42067653  0.90201354  0.92922120     0.43800
H1752       H  0.32786727  0.95697665  0.93592206     0.43700
C1753       C  0.19315136  0.40955210  0.59035466    -0.05300
C1754       C  0.21203097  0.42402976  0.58862571    -0.32800
C1755       C  0.21247709  0.44158149  0.57252456     0.36500
C1756       C  0.19350965  0.44526257  0.55830201    -0.05700
C1757       C  0.17451583  0.43096315  0.56046538    -0.32700
C1758       C  0.17430732  0.41316533  0.57611532     0.36400
H1759       H  0.22658335  0.42155511  0.59961812     0.16700
O1760       O  0.23118234  0.45543732  0.57140548    -0.60200
H1761       H  0.15968723  0.43344381  0.54985362     0.16800
O1762       O  0.15507327  0.40015566  0.57820087    -0.60300
H1763       H  0.15516928  0.38991254  0.56487480     0.43800
H1764       H  0.24222900  0.44721865  0.56173128     0.43700
C1765       C  0.43237383  0.13114244  0.58192928    -0.05300
C1766       C  0.44765848  0.11289901  0.58177201    -0.32800
C1767       C  0.46487814  0.11159048  0.56539982     0.36500
C1768       C  0.46734407  0.12903103  0.54921568    -0.05700
C1769       C  0.45184529  0.14716441  0.54933322    -0.32700
C1770       C  0.43427091  0.14811587  0.56529466     0.36400
H1771       H  0.44627690  0.09966204  0.59445545     0.16700
O1772       O  0.47951293  0.09351609  0.56576878    -0.60200
H1773       H  0.45335893  0.16071213  0.53699714     0.16800
O1774       O  0.41986179  0.16637826  0.56532618    -0.60300
H1775       H  0.40810542  0.16277689  0.55382035     0.43800
H1776       H  0.49212078  0.09820880  0.57589527     0.43700
C1777       C  0.47947547  0.44532866  0.84014121    -0.05300
C1778       C  0.47895920  0.42741672  0.82443068    -0.32800
C1779       C  0.46179757  0.41080791  0.82539352     0.36500
C1780       C  0.44437874  0.41242583  0.84172101    -0.05700
C1781       C  0.44465689  0.43063592  0.85703003    -0.32700
C1782       C  0.46213585  0.44675331  0.85657466     0.36400
H1783       H  0.49209267  0.42608132  0.81162416     0.16700
O1784       O  0.46164679  0.39365052  0.80971086    -0.60200
H1785       H  0.43140268  0.43222931  0.86968360     0.16800
O1786       O  0.46158179  0.46440454  0.87170513    -0.60300
H1787       H  0.46819364  0.45826849  0.88591915     0.43800
H1788       H  0.47281854  0.38242332  0.81537560     0.43700
C1789       C  0.36540027  0.08102290  0.91877880    -0.05300
C1790       C  0.34648906  0.07776524  0.93291828    -0.32800
C1791       C  0.34619024  0.06023717  0.94913980     0.36500
C1792       C  0.36539488  0.04612411  0.95204584    -0.05700
C1793       C  0.38439061  0.04971929  0.93799305    -0.32700
C1794       C  0.38439304  0.06676126  0.92139347     0.36400
H1795       H  0.33170254  0.08853697  0.93104706     0.16700
O1796       O  0.32727241  0.05750209  0.96244520    -0.60200
H1797       H  0.39930901  0.03910635  0.93969825     0.16800
O1798       O  0.40319593  0.06947162  0.90790650    -0.60300
H1799       H  0.41284602  0.08069516  0.91593001     0.43800
H1800       H  0.31678224  0.04796136  0.95334576     0.43700
C1801       C  0.09871029  0.08132876  0.66338541    -0.05300
C1802       C  0.09684259  0.06664627  0.64479055    -0.32800
C1803       C  0.07994591  0.04995514  0.64406079     0.36500
C1804       C  0.06472463  0.04735205  0.66239343    -0.05700
C1805       C  0.06669023  0.06206167  0.68108634    -0.32700
C1806       C  0.08330633  0.07916302  0.68150811     0.36400
H1807       H  0.10849795  0.06821165  0.63064286     0.16700
O1808       O  0.07867791  0.03614521  0.62539549    -0.60200
H1809       H  0.05518394  0.06045588  0.69534332     0.16800
O1810       O  0.08502994  0.09296169  0.70014510    -0.60300
H1811       H  0.07358807  0.10504853  0.69772273     0.43800
H1812       H  0.08883108  0.02319083  0.62882643     0.43700
C1813       C  0.10825605  0.35209134  0.92015693    -0.05300
C1814       C  0.08834024  0.36504525  0.91836569    -0.32800
C1815       C  0.07194622  0.36447817  0.93553297     0.36500
C1816       C  0.07510945  0.35040398  0.95455743    -0.05700
C1817       C  0.09459722  0.33686201  0.95600878    -0.32700
C1818       C  0.11120180  0.33774489  0.93907969     0.36400
H1819       H  0.08570023  0.37606007  0.90389319     0.16700
O1820       O  0.05252389  0.37711917  0.93321027    -0.60200
H1821       H  0.09714279  0.32586105  0.97051913     0.16800
O1822       O  0.13014371  0.32438246  0.94115782    -0.60300
H1823       H  0.12661063  0.31041447  0.93249255     0.43800
H1824       H  0.05667893  0.39254021  0.93847110     0.43700
C1825       C  0.56728247  0.12919338  0.55326584    -0.05300
C1826       C  0.58489741  0.11316614  0.55256634    -0.32800
C1827       C  0.60169675  0.11275993  0.56941477     0.36500
C1828       C  0.60073671  0.12816187  0.58765512    -0.05700
C1829       C  0.58285921  0.14382517  0.58864696    -0.32700
C1830       C  0.56646969  0.14472482  0.57141771     0.36400
H1831       H  0.58586501  0.10115948  0.53869711     0.16700
O1832       O  0.61886023  0.09711257  0.56798686    -0.60200
H1833       H  0.58190814  0.15578937  0.60255147     0.16800
O1834       O  0.54931217  0.16037452  0.57286908    -0.60300
H1835       H  0.55582198  0.17459652  0.56663542     0.43800
H1836       H  0.61343379  0.08384229  0.57680059     0.43700
C1837       C  0.88563493  0.41901134  0.58709603    -0.05300
C1838       C  0.86985019  0.41774716  0.56932885    -0.32800
C1839       C  0.86908454  0.43453980  0.55260883     0.36500
C1840       C  0.88482227  0.45255970  0.55302596    -0.05700
C1841       C  0.90089253  0.45364846  0.57057631    -0.32700
C1842       C  0.90111390  0.43726006  0.58779184     0.36400
H1843       H  0.85780417  0.40385475  0.56858587     0.16700
O1844       O  0.85348494  0.43268094  0.53540914    -0.60200
H1845       H  0.91308680  0.46742278  0.57113684     0.16800
O1846       O  0.91716030  0.43866661  0.60461899    -0.60300
H1847       H  0.91161947  0.45065720  0.61501865     0.43800
H1848       H  0.83918341  0.43900029  0.54166676     0.43700
C1849       C  0.57948685  0.44481089  0.84001776    -0.05300
C1850       C  0.57573604  0.42418018  0.82879174    -0.32800
C1851       C  0.59145909  0.40635310  0.83056345     0.36500
C1852       C  0.61169963  0.40930466  0.84308017    -0.05700
C1853       C  0.61569043  0.43029895  0.85367423    -0.32700
C1854       C  0.59963585  0.44780330  0.85250322     0.36400
H1855       H  0.56028275  0.42166723  0.81910204     0.16700
O1856       O  0.58725343  0.38643460  0.81932894    -0.60200
H1857       H  0.63110861  0.43302494  0.86334360     0.16800
O1858       O  0.60409283  0.46805491  0.86304525    -0.60300
H1859       H  0.59896213  0.46596941  0.87893278     0.43800
H1860       H  0.57560919  0.37848449  0.82855406     0.43700
C1861       C  0.94488919  0.34774598  0.92125452    -0.05300
C1862       C  0.94265598  0.36241111  0.93982304    -0.32800
C1863       C  0.95914692  0.36286450  0.95692051     0.36500
C1864       C  0.97776269  0.34788872  0.95599748    -0.05700
C1865       C  0.97972294  0.33287753  0.93765042    -0.32700
C1866       C  0.96359740  0.33293400  0.92020178     0.36400
H1867       H  0.92831541  0.37387504  0.94084117     0.16700
O1868       O  0.95652091  0.37745568  0.97483770    -0.60200
H1869       H  0.99402680  0.32136761  0.93662909     0.16800
O1870       O  0.96614768  0.31829168  0.90232529    -0.60300
H1871       H  0.95748290  0.30452262  0.90664789     0.43800
H1872       H  0.96256555  0.39220338  0.96943088     0.43700
C1873       C  0.93460019  0.08460436  0.66147495    -0.05300
C1874       C  0.93380421  0.06806550  0.67855947    -0.32800
C1875       C  0.94988282  0.05058128  0.67923048     0.36500
C1876       C  0.96660129  0.04904127  0.66215882    -0.05700
C1877       C  0.96708540  0.06542093  0.64487144    -0.32700
C1878       C  0.95147169  0.08327329  0.64462155     0.36400
H1879       H  0.92080217  0.06883822  0.69155172     0.16700
O1880       O  0.94850594  0.03459060  0.69607933    -0.60200
H1881       H  0.97977227  0.06453334  0.63158178     0.16800
O1882       O  0.95209621  0.09865675  0.62716831    -0.60300
H1883       H  0.96474516  0.10912293  0.63092853     0.43800
H1884       H  0.95641968  0.04140866  0.70928748     0.43700
C1885       C  0.68424154  0.04223394  0.95745961    -0.05300
C1886       C  0.66473905  0.04687320  0.94445781    -0.32800
C1887       C  0.66524831  0.06306673  0.92705845     0.36500
C1888       C  0.68525294  0.07539694  0.92274613    -0.05700
C1889       C  0.70459421  0.07129098  0.93596952    -0.32700
C1890       C  0.70434422  0.05463585  0.95297707     0.36400
H1891       H  0.64909465  0.03765429  0.94749824     0.16700
O1892       O  0.64588130  0.06725835  0.91480822    -0.60200
H1893       H  0.72006946  0.08077076  0.93283668     0.16800
O1894       O  0.72369754  0.05105244  0.96544146    -0.60300
H1895       H  0.73308851  0.04064318  0.95614083     0.43800
H1896       H  0.64587627  0.05581435  0.90250467     0.43700
loop_ 
_geom_bond_atom_site_label_1 
_geom_bond_atom_site_label_2 
_geom_bond_distance 
_geom_bond_site_symmetry_2 
_ccdc_geom_bond_type 
N1            N2   1.323       .  A
N1            C5   1.346       .  A
N1           Cu9   2.079       .  S
N2            C3   1.347       .  A
N2           Cu8   2.082       .  S
C3            C4   1.383       .  A
C3            H6   1.082       .  S
C4            C5   1.384       .  A
C4          C134   1.472       .  S
C5            H7   1.082       .  S
Cu8          N11   2.083       .  S
Cu9          N19   2.079       .  S
Cu10         N12   2.087       .  S
Cu10         N18   2.085       .  S
N11          N12   1.323       .  A
N11          C15   1.347       .  A
N12          C13   1.347       .  A
C13          C14   1.385       .  A
C13          H16   1.082       .  S
C14          C15   1.383       .  A
C14          C76   1.475       .  S
C15          H17   1.082       .  S
N18          N19   1.323       .  A
N18          C22   1.348       .  A
N19          C20   1.346       .  A
C20          C21   1.383       .  A
C20          H23   1.082       .  S
C21          C22   1.383       .  A
C21        C1888   1.476       .  S
C22          H24   1.082       .  S
N25          N26   1.324       .  A
N25          C29   1.341       .  A
N25         Cu33   2.063       .  S
N26          C27   1.349       .  A
N26         Cu32   2.088       .  S
C27          C28   1.385       .  A
C27          H30   1.082       .  S
C28          C29   1.377       .  A
C28         C124   1.467       .  S
C29          H31   1.082       .  S
Cu32         N35   2.088       .  S
Cu33         N43   2.062       .  S
Cu34         N36   2.066       .  S
Cu34         N42   2.065       .  S
N35          N36   1.323       .  A
N35          C39   1.348       .  A
N36          C37   1.343       .  A
C37          C38   1.378       .  A
C37          H40   1.082       .  S
C38          C39   1.385       .  A
C38         C100   1.468       .  S
C39          H41   1.082       .  S
N42          N43   1.320       .  A
N42          C46   1.343       .  A
N43          C44   1.344       .  A
C44          C45   1.383       .  A
C44          H47   1.082       .  S
C45          C46   1.384       .  A
C45        C1873   1.474       .  S
C46          H48   1.082       .  S
N49          N50   1.323       .  A
N49          C53   1.346       .  A
N49         Cu57   2.074       .  S
N50          C51   1.346       .  A
N50         Cu56   2.080       .  S
C51          C52   1.383       .  A
C51          H54   1.082       .  S
C52          C53   1.382       .  A
C52          C86   1.470       .  S
C53          H55   1.082       .  S
Cu56         N59   2.079       .  S
Cu57         N67   2.073       .  S
Cu58         N60   2.066       .  S
Cu58         N66   2.066       .  S
N59          N60   1.323       .  A
N59          C63   1.345       .  A
N60          C61   1.344       .  A
C61          C62   1.379       .  A
C61          H64   1.082       .  S
C62          C63   1.382       .  A
C62         C110   1.465       .  S
C63          H65   1.082       .  S
N66          N67   1.322       .  A
N66          C70   1.344       .  A
N67          C68   1.345       .  A
C68          C69   1.383       .  A
C68          H71   1.082       .  S
C69          C70   1.382       .  A
C69        C1861   1.473       .  S
C70          H72   1.082       .  S
N73          N74   1.324       .  A
N73          C77   1.349       .  A
N73         Cu81   2.094       .  S
N74          C75   1.346       .  A
N74         Cu80   2.078       .  S
C75          C76   1.382       .  A
C75          H78   1.082       .  S
C76          C77   1.386       .  A
C77          H79   1.082       .  S
Cu80         N83   2.078       .  S
Cu81         N91   2.094       .  S
Cu82         N84   2.074       .  S
Cu82         N90   2.074       .  S
N83          N84   1.322       .  A
N83          C87   1.347       .  A
N84          C85   1.345       .  A
C85          C86   1.382       .  A
C85          H88   1.082       .  S
C86          C87   1.384       .  A
C87          H89   1.082       .  S
N90          N91   1.322       .  A
N90          C94   1.345       .  A
N91          C92   1.349       .  A
C92          C93   1.390       .  A
C92          H95   1.081       .  S
C93          C94   1.385       .  A
C93        C1852   1.488       .  S
C94          H96   1.082       .  S
N97          N98   1.324       .  A
N97         C101   1.346       .  A
N97        Cu105   2.074       .  S
N98          C99   1.345       .  A
N98        Cu104   2.080       .  S
C99         C100   1.382       .  A
C99         H102   1.082       .  S
C100        C101   1.381       .  A
C101        H103   1.082       .  S
Cu104       N107   2.079       .  S
Cu105       N115   2.074       .  S
Cu106       N108   2.060       .  S
Cu106       N114   2.060       .  S
N107        N108   1.322       .  A
N107        C111   1.346       .  A
N108        C109   1.344       .  A
C109        C110   1.379       .  A
C109        H112   1.082       .  S
C110        C111   1.383       .  A
C111        H113   1.082       .  S
N114        N115   1.321       .  A
N114        C118   1.343       .  A
N115        C116   1.345       .  A
C116        C117   1.385       .  A
C116        H119   1.082       .  S
C117        C118   1.382       .  A
C117       C1837   1.475       .  S
C118        H120   1.082       .  S
N121        N122   1.321       .  A
N121        C125   1.347       .  A
N121       Cu129   2.067       .  S
N122        C123   1.343       .  A
N122       Cu128   2.070       .  S
C123        C124   1.381       .  A
C123        H126   1.082       .  S
C124        C125   1.382       .  A
C125        H127   1.082       .  S
Cu128       N131   2.070       .  S
Cu129       N139   2.068       .  S
Cu130       N132   2.091       .  S
Cu130       N138   2.091       .  S
N131        N132   1.323       .  A
N131        C135   1.345       .  A
N132        C133   1.348       .  A
C133        C134   1.386       .  A
C133        H136   1.082       .  S
C134        C135   1.381       .  A
C135        H137   1.082       .  S
N138        N139   1.323       .  A
N138        C142   1.348       .  A
N139        C140   1.344       .  A
C140        C141   1.382       .  A
C140        H143   1.082       .  S
C141        C142   1.386       .  A
C141       C1828   1.478       .  S
C142        H144   1.082       .  S
N145        N146   1.323       .  A
N145        C149   1.344       .  A
N145       Cu153   2.069       .  S
N146        C147   1.344       .  A
N146       Cu152   2.073       .  S
C147        C148   1.381       .  A
C147        H150   1.082       .  S
C148        C149   1.381       .  A
C148        C278   1.467       .  S
C149        H151   1.082       .  S
Cu152       N155   2.073       .  S
Cu153       N163   2.069       .  S
Cu154       N156   2.065       .  S
Cu154       N162   2.064       .  S
N155        N156   1.321       .  A
N155        C159   1.345       .  A
N156        C157   1.344       .  A
C157        C158   1.381       .  A
C157        H160   1.082       .  S
C158        C159   1.383       .  A
C158        C230   1.467       .  S
C159        H161   1.082       .  S
N162        N163   1.321       .  A
N162        C166   1.342       .  A
N163        C164   1.345       .  A
C164        C165   1.385       .  A
C164        H167   1.082       .  S
C165        C166   1.383       .  A
C165       C1813   1.476       .  S
C166        H168   1.082       .  S
N169        N170   1.321       .  A
N169        C173   1.346       .  A
N169       Cu177   2.071       .  S
N170        C171   1.345       .  A
N170       Cu176   2.074       .  S
C171        C172   1.382       .  A
C171        H174   1.082       .  S
C172        C173   1.382       .  A
C172        C244   1.468       .  S
C173        H175   1.082       .  S
Cu176       N179   2.075       .  S
Cu177       N187   2.071       .  S
Cu178       N180   2.084       .  S
Cu178       N186   2.084       .  S
N179        N180   1.324       .  A
N179        C183   1.344       .  A
N180        C181   1.348       .  A
C181        C182   1.384       .  A
C181        H184   1.082       .  S
C182        C183   1.381       .  A
C182        C268   1.470       .  S
C183        H185   1.082       .  S
N186        N187   1.323       .  A
N186        C190   1.348       .  A
N187        C188   1.343       .  A
C188        C189   1.382       .  A
C188        H191   1.082       .  S
C189        C190   1.386       .  A
C189       C1801   1.478       .  S
C190        H192   1.082       .  S
N193        N194   1.321       .  A
N193        C197   1.345       .  A
N193       Cu201   2.074       .  S
N194        C195   1.347       .  A
N194       Cu200   2.075       .  S
C195        C196   1.383       .  A
C195        H198   1.082       .  S
C196        C197   1.382       .  A
C196        C254   1.468       .  S
C197        H199   1.082       .  S
Cu200       N203   2.076       .  S
Cu201       N211   2.075       .  S
Cu202       N204   2.102       .  S
Cu202       N210   2.102       .  S
N203        N204   1.325       .  A
N203        C207   1.345       .  A
N204        C205   1.350       .  A
C205        C206   1.387       .  A
C205        H208   1.082       .  S
C206        C207   1.381       .  A
C206        C220   1.475       .  S
C207        H209   1.082       .  S
N210        N211   1.323       .  A
N210        C214   1.352       .  A
N211        C212   1.345       .  A
C212        C213   1.382       .  A
C212        H215   1.082       .  S
C213        C214   1.389       .  A
C213       C1789   1.485       .  S
C214        H216   1.082       .  S
N217        N218   1.324       .  A
N217        C221   1.347       .  A
N217       Cu225   2.093       .  S
N218        C219   1.348       .  A
N218       Cu224   2.077       .  S
C219        C220   1.383       .  A
C219        H222   1.082       .  S
C220        C221   1.385       .  A
C221        H223   1.082       .  S
Cu224       N227   2.075       .  S
Cu225       N235   2.092       .  S
Cu226       N228   2.069       .  S
Cu226       N234   2.070       .  S
N227        N228   1.322       .  A
N227        C231   1.345       .  A
N228        C229   1.344       .  A
C229        C230   1.381       .  A
C229        H232   1.082       .  S
C230        C231   1.383       .  A
C231        H233   1.082       .  S
N234        N235   1.322       .  A
N234        C238   1.343       .  A
N235        C236   1.350       .  A
C236        C237   1.389       .  A
C236        H239   1.082       .  S
C237        C238   1.384       .  A
C237       C1780   1.484       .  S
C238        H240   1.082       .  S
N241        N242   1.323       .  A
N241        C245   1.345       .  A
N241       Cu249   2.075       .  S
N242        C243   1.346       .  A
N242       Cu248   2.081       .  S
C243        C244   1.383       .  A
C243        H246   1.082       .  S
C244        C245   1.381       .  A
C245        H247   1.082       .  S
Cu248       N251   2.080       .  S
Cu249       N259   2.075       .  S
Cu250       N252   2.073       .  S
Cu250       N258   2.073       .  S
N251        N252   1.322       .  A
N251        C255   1.345       .  A
N252        C253   1.347       .  A
C253        C254   1.382       .  A
C253        H256   1.082       .  S
C254        C255   1.382       .  A
C255        H257   1.082       .  S
N258        N259   1.322       .  A
N258        C262   1.344       .  A
N259        C260   1.346       .  A
C260        C261   1.384       .  A
C260        H263   1.082       .  S
C261        C262   1.382       .  A
C261       C1765   1.474       .  S
C262        H264   1.082       .  S
N265        N266   1.322       .  A
N265        C269   1.344       .  A
N265       Cu273   2.073       .  S
N266        C267   1.347       .  A
N266       Cu272   2.075       .  S
C267        C268   1.384       .  A
C267        H270   1.082       .  S
C268        C269   1.382       .  A
C269        H271   1.082       .  S
Cu272       N275   2.076       .  S
Cu273       N283   2.073       .  S
Cu274       N276   2.071       .  S
Cu274       N282   2.070       .  S
N275        N276   1.324       .  A
N275        C279   1.344       .  A
N276        C277   1.344       .  A
C277        C278   1.381       .  A
C277        H280   1.082       .  S
C278        C279   1.382       .  A
C279        H281   1.082       .  S
N282        N283   1.321       .  A
N282        C286   1.346       .  A
N283        C284   1.344       .  A
C284        C285   1.385       .  A
C284        H287   1.082       .  S
C285        C286   1.384       .  A
C285       C1753   1.478       .  S
C286        H288   1.082       .  S
N289        N290   1.322       .  A
N289        C293   1.345       .  A
N289       Cu297   2.070       .  S
N290        C291   1.344       .  A
N290       Cu296   2.069       .  S
C291        C292   1.381       .  A
C291        H294   1.082       .  S
C292        C293   1.382       .  A
C292        C374   1.466       .  S
C293        H295   1.082       .  S
Cu296       N299   2.069       .  S
Cu297       N307   2.070       .  S
Cu298       N300   2.084       .  S
Cu298       N306   2.084       .  S
N299        N300   1.322       .  A
N299        C303   1.344       .  A
N300        C301   1.348       .  A
C301        C302   1.385       .  A
C301        H304   1.082       .  S
C302        C303   1.381       .  A
C302        C422   1.472       .  S
C303        H305   1.082       .  S
N306        N307   1.323       .  A
N306        C310   1.346       .  A
N307        C308   1.345       .  A
C308        C309   1.384       .  A
C308        H311   1.082       .  S
C309        C310   1.386       .  A
C309       C1741   1.480       .  S
C310        H312   1.082       .  S
N313        N314   1.322       .  A
N313        C317   1.345       .  A
N313       Cu321   2.070       .  S
N314        C315   1.345       .  A
N314       Cu320   2.073       .  S
C315        C316   1.382       .  A
C315        H318   1.082       .  S
C316        C317   1.382       .  A
C316        C388   1.467       .  S
C317        H319   1.082       .  S
Cu320       N323   2.074       .  S
Cu321       N331   2.070       .  S
Cu322       N324   2.088       .  S
Cu322       N330   2.088       .  S
N323        N324   1.323       .  A
N323        C327   1.344       .  A
N324        C325   1.349       .  A
C325        C326   1.386       .  A
C325        H328   1.082       .  S
C326        C327   1.381       .  A
C326        C412   1.473       .  S
C327        H329   1.082       .  S
N330        N331   1.323       .  A
N330        C334   1.347       .  A
N331        C332   1.344       .  A
C332        C333   1.383       .  A
C332        H335   1.082       .  S
C333        C334   1.386       .  A
C333       C1732   1.481       .  S
C334        H336   1.082       .  S
N337        N338   1.323       .  A
N337        C341   1.346       .  A
N337       Cu345   2.076       .  S
N338        C339   1.343       .  A
N338       Cu344   2.072       .  S
C339        C340   1.381       .  A
C339        H342   1.082       .  S
C340        C341   1.383       .  A
C340        C364   1.468       .  S
C341        H343   1.082       .  S
Cu344       N347   2.073       .  S
Cu345       N355   2.076       .  S
Cu346       N348   2.071       .  S
Cu346       N354   2.071       .  S
N347        N348   1.322       .  A
N347        C351   1.345       .  A
N348        C349   1.345       .  A
C349        C350   1.383       .  A
C349        H352   1.082       .  S
C350        C351   1.383       .  A
C350        C398   1.470       .  S
C351        H353   1.082       .  S
N354        N355   1.322       .  A
N354        C358   1.343       .  A
N355        C356   1.346       .  A
C356        C357   1.386       .  A
C356        H359   1.081       .  S
C357        C358   1.383       .  A
C357       C1717   1.480       .  S
C358        H360   1.082       .  S
N361        N362   1.322       .  A
N361        C365   1.344       .  A
N361       Cu369   2.069       .  S
N362        C363   1.346       .  A
N362       Cu368   2.071       .  S
C363        C364   1.383       .  A
C363        H366   1.082       .  S
C364        C365   1.382       .  A
C365        H367   1.082       .  S
Cu368       N371   2.071       .  S
Cu369       N379   2.069       .  S
Cu370       N372   2.075       .  S
Cu370       N378   2.074       .  S
N371        N372   1.323       .  A
N371        C375   1.344       .  A
N372        C373   1.345       .  A
C373        C374   1.382       .  A
C373        H376   1.082       .  S
C374        C375   1.381       .  A
C375        H377   1.082       .  S
N378        N379   1.322       .  A
N378        C382   1.346       .  A
N379        C380   1.343       .  A
C380        C381   1.382       .  A
C380        H383   1.082       .  S
C381        C382   1.385       .  A
C381       C1705   1.476       .  S
C382        H384   1.082       .  S
N385        N386   1.322       .  A
N385        C389   1.345       .  A
N385       Cu393   2.072       .  S
N386        C387   1.346       .  A
N386       Cu392   2.076       .  S
C387        C388   1.383       .  A
C387        H390   1.082       .  S
C388        C389   1.381       .  A
C389        H391   1.082       .  S
Cu392       N395   2.077       .  S
Cu393       N403   2.073       .  S
Cu394       N396   2.084       .  S
Cu394       N402   2.085       .  S
N395        N396   1.324       .  A
N395        C399   1.346       .  A
N396        C397   1.346       .  A
C397        C398   1.383       .  A
C397        H400   1.082       .  S
C398        C399   1.382       .  A
C399        H401   1.082       .  S
N402        N403   1.321       .  A
N402        C406   1.349       .  A
N403        C404   1.344       .  A
C404        C405   1.386       .  A
C404        H407   1.081       .  S
C405        C406   1.389       .  A
C405       C1693   1.487       .  S
C406        H408   1.082       .  S
N409        N410   1.324       .  A
N409        C413   1.345       .  A
N409       Cu417   2.083       .  S
N410        C411   1.347       .  A
N410       Cu416   2.079       .  S
C411        C412   1.383       .  A
C411        H414   1.082       .  S
C412        C413   1.384       .  A
C413        H415   1.082       .  S
Cu416       N419   2.079       .  S
Cu417       N427   2.083       .  S
Cu418       N420   2.076       .  S
Cu418       N426   2.075       .  S
N419        N420   1.323       .  A
N419        C423   1.347       .  A
N420        C421   1.345       .  A
C421        C422   1.383       .  A
C421        H424   1.082       .  S
C422        C423   1.383       .  A
C423        H425   1.082       .  S
N426        N427   1.322       .  A
N426        C430   1.345       .  A
N427        C428   1.348       .  A
C428        C429   1.384       .  A
C428        H431   1.082       .  S
C429        C430   1.382       .  A
C429       C1681   1.475       .  S
C430        H432   1.082       .  S
N433        N434   1.322       .  A
N433        C437   1.346       .  A
N433       Cu441   2.071       .  S
N434        C435   1.347       .  A
N434       Cu440   2.084       .  S
C435        C436   1.384       .  A
C435        H438   1.082       .  S
C436        C437   1.381       .  A
C436        C508   1.470       .  S
C437        H439   1.082       .  S
Cu440       N443   2.085       .  S
Cu441       N451   2.071       .  S
Cu442       N444   2.089       .  S
Cu442       N450   2.089       .  S
N443        N444   1.324       .  A
N443        C447   1.347       .  A
N444        C445   1.348       .  A
C445        C446   1.384       .  A
C445        H448   1.082       .  S
C446        C447   1.383       .  A
C446        C556   1.475       .  S
C447        H449   1.082       .  S
N450        N451   1.322       .  A
N450        C454   1.349       .  A
N451        C452   1.343       .  A
C452        C453   1.384       .  A
C452        H455   1.081       .  S
C453        C454   1.389       .  A
C453       C1669   1.484       .  S
C454        H456   1.082       .  S
N457        N458   1.322       .  A
N457        C461   1.346       .  A
N457       Cu465   2.074       .  S
N458        C459   1.344       .  A
N458       Cu464   2.072       .  S
C459        C460   1.382       .  A
C459        H462   1.082       .  S
C460        C461   1.384       .  A
C460        C542   1.471       .  S
C461        H463   1.082       .  S
Cu464       N467   2.072       .  S
Cu465       N475   2.073       .  S
Cu466       N468   2.096       .  S
Cu466       N474   2.097       .  S
N467        N468   1.323       .  A
N467        C471   1.345       .  A
N468        C469   1.349       .  A
C469        C470   1.388       .  A
C469        H472   1.082       .  S
C470        C471   1.381       .  A
C470        C566   1.476       .  S
C471        H473   1.082       .  S
N474        N475   1.323       .  A
N474        C478   1.350       .  A
N475        C476   1.344       .  A
C476        C477   1.383       .  A
C476        H479   1.081       .  S
C477        C478   1.390       .  A
C477       C1657   1.486       .  S
C478        H480   1.082       .  S
N481        N482   1.326       .  A
N481        C485   1.349       .  A
N481       Cu489   2.100       .  S
N482        C483   1.345       .  A
N482       Cu488   2.082       .  S
C483        C484   1.381       .  A
C483        H486   1.082       .  S
C484        C485   1.387       .  A
C484        C532   1.475       .  S
C485        H487   1.082       .  S
Cu488       N491   2.083       .  S
Cu489       N499   2.099       .  S
Cu490       N492   2.067       .  S
Cu490       N498   2.067       .  S
N491        N492   1.321       .  A
N491        C495   1.350       .  A
N492        C493   1.343       .  A
C493        C494   1.381       .  A
C493        H496   1.082       .  S
C494        C495   1.387       .  A
C494        C518   1.472       .  S
C495        H497   1.082       .  S
N498        N499   1.322       .  A
N498        C502   1.343       .  A
N499        C500   1.351       .  A
C500        C501   1.391       .  A
C500        H503   1.082       .  S
C501        C502   1.382       .  A
C501       C1645   1.485       .  S
C502        H504   1.082       .  S
N505        N506   1.320       .  A
N505        C509   1.345       .  A
N505       Cu513   2.067       .  S
N506        C507   1.346       .  A
N506       Cu512   2.076       .  S
C507        C508   1.384       .  A
C507        H510   1.082       .  S
C508        C509   1.382       .  A
C509        H511   1.082       .  S
Cu512       N515   2.077       .  S
Cu513       N523   2.067       .  S
Cu514       N516   2.094       .  S
Cu514       N522   2.094       .  S
N515        N516   1.325       .  A
N515        C519   1.343       .  A
N516        C517   1.350       .  A
C517        C518   1.385       .  A
C517        H520   1.082       .  S
C518        C519   1.380       .  A
C519        H521   1.082       .  S
N522        N523   1.323       .  A
N522        C526   1.350       .  A
N523        C524   1.342       .  A
C524        C525   1.381       .  A
C524        H527   1.082       .  S
C525        C526   1.389       .  A
C525       C1636   1.482       .  S
C526        H528   1.082       .  S
N529        N530   1.322       .  A
N529        C533   1.347       .  A
N529       Cu537   2.088       .  S
N530        C531   1.346       .  A
N530       Cu536   2.073       .  S
C531        C532   1.383       .  A
C531        H534   1.082       .  S
C532        C533   1.387       .  A
C533        H535   1.082       .  S
Cu536       N539   2.073       .  S
Cu537       N547   2.088       .  S
Cu538       N540   2.083       .  S
Cu538       N546   2.083       .  S
N539        N540   1.323       .  A
N539        C543   1.345       .  A
N540        C541   1.346       .  A
C541        C542   1.384       .  A
C541        H544   1.082       .  S
C542        C543   1.382       .  A
C543        H545   1.082       .  S
N546        N547   1.323       .  A
N546        C550   1.349       .  A
N547        C548   1.345       .  A
C548        C549   1.385       .  A
C548        H551   1.082       .  S
C549        C550   1.385       .  A
C549       C1624   1.481       .  S
C550        H552   1.082       .  S
N553        N554   1.323       .  A
N553        C557   1.347       .  A
N553       Cu561   2.081       .  S
N554        C555   1.348       .  A
N554       Cu560   2.083       .  S
C555        C556   1.384       .  A
C555        H558   1.082       .  S
C556        C557   1.384       .  A
C557        H559   1.082       .  S
Cu560       N563   2.083       .  S
Cu561       N571   2.082       .  S
Cu562       N564   2.090       .  S
Cu562       N570   2.089       .  S
N563        N564   1.324       .  A
N563        C567   1.347       .  A
N564        C565   1.347       .  A
C565        C566   1.386       .  A
C565        H568   1.082       .  S
C566        C567   1.383       .  A
C567        H569   1.082       .  S
N570        N571   1.322       .  A
N570        C574   1.349       .  A
N571        C572   1.346       .  A
C572        C573   1.386       .  A
C572        H575   1.082       .  S
C573        C574   1.387       .  A
C573       C1609   1.487       .  S
C574        H576   1.082       .  S
N577        N578   1.323       .  A
N577        C581   1.348       .  A
N577       Cu585   2.081       .  S
N578        C579   1.345       .  A
N578       Cu584   2.080       .  S
C579        C580   1.382       .  A
C579        H582   1.082       .  S
C580        C581   1.383       .  A
C580        C700   1.471       .  S
C581        H583   1.082       .  S
Cu584       N587   2.081       .  S
Cu585       N595   2.081       .  S
Cu586       N588   2.092       .  S
Cu586       N594   2.092       .  S
N587        N588   1.323       .  A
N587        C591   1.349       .  A
N588        C589   1.346       .  A
C589        C590   1.385       .  A
C589        H592   1.082       .  S
C590        C591   1.385       .  A
C590        C652   1.477       .  S
C591        H593   1.082       .  S
N594        N595   1.322       .  A
N594        C598   1.349       .  A
N595        C596   1.346       .  A
C596        C597   1.386       .  A
C596        H599   1.082       .  S
C597        C598   1.388       .  A
C597       C1600   1.487       .  S
C598        H600   1.082       .  S
N601        N602   1.321       .  A
N601        C605   1.346       .  A
N601       Cu609   2.077       .  S
N602        C603   1.345       .  A
N602       Cu608   2.067       .  S
C603        C604   1.382       .  A
C603        H606   1.082       .  S
C604        C605   1.384       .  A
C604        C710   1.470       .  S
C605        H607   1.082       .  S
Cu608       N611   2.067       .  S
Cu609       N619   2.077       .  S
Cu610       N612   2.084       .  S
Cu610       N618   2.084       .  S
N611        N612   1.323       .  A
N611        C615   1.343       .  A
N612        C613   1.347       .  A
C613        C614   1.384       .  A
C613        H616   1.082       .  S
C614        C615   1.380       .  A
C614        C686   1.469       .  S
C615        H617   1.082       .  S
N618        N619   1.323       .  A
N618        C622   1.348       .  A
N619        C620   1.345       .  A
C620        C621   1.384       .  A
C620        H623   1.082       .  S
C621        C622   1.386       .  A
C621       C1585   1.482       .  S
C622        H624   1.082       .  S
N625        N626   1.324       .  A
N625        C629   1.350       .  A
N625       Cu633   2.094       .  S
N626        C627   1.344       .  A
N626       Cu632   2.073       .  S
C627        C628   1.380       .  A
C627        H630   1.082       .  S
C628        C629   1.386       .  A
C628        C662   1.472       .  S
C629        H631   1.082       .  S
Cu632       N635   2.073       .  S
Cu633       N643   2.096       .  S
Cu634       N636   2.090       .  S
Cu634       N642   2.090       .  S
N635        N636   1.322       .  A
N635        C639   1.346       .  A
N636        C637   1.348       .  A
C637        C638   1.386       .  A
C637        H640   1.082       .  S
C638        C639   1.382       .  A
C638        C676   1.474       .  S
C639        H641   1.082       .  S
N642        N643   1.323       .  A
N642        C646   1.347       .  A
N643        C644   1.350       .  A
C644        C645   1.389       .  A
C644        H647   1.082       .  S
C645        C646   1.388       .  A
C645       C1573   1.492       .  S
C646        H648   1.082       .  S
N649        N650   1.325       .  A
N649        C653   1.352       .  A
N649       Cu657   2.104       .  S
N650        C651   1.343       .  A
N650       Cu656   2.075       .  S
C651        C652   1.380       .  A
C651        H654   1.082       .  S
C652        C653   1.389       .  A
C653        H655   1.082       .  S
Cu656       N659   2.075       .  S
Cu657       N667   2.103       .  S
Cu658       N660   2.074       .  S
Cu658       N666   2.074       .  S
N659        N660   1.321       .  A
N659        C663   1.348       .  A
N660        C661   1.345       .  A
C661        C662   1.384       .  A
C661        H664   1.082       .  S
C662        C663   1.385       .  A
C663        H665   1.082       .  S
N666        N667   1.323       .  A
N666        C670   1.344       .  A
N667        C668   1.351       .  A
C668        C669   1.390       .  A
C668        H671   1.082       .  S
C669        C670   1.383       .  A
C669       C1561   1.486       .  S
C670        H672   1.082       .  S
N673        N674   1.324       .  A
N673        C677   1.349       .  A
N673       Cu681   2.094       .  S
N674        C675   1.346       .  A
N674       Cu680   2.078       .  S
C675        C676   1.381       .  A
C675        H678   1.082       .  S
C676        C677   1.386       .  A
C677        H679   1.082       .  S
Cu680       N683   2.077       .  S
Cu681       N691   2.094       .  S
Cu682       N684   2.072       .  S
Cu682       N690   2.073       .  S
N683        N684   1.322       .  A
N683        C687   1.347       .  A
N684        C685   1.344       .  A
C685        C686   1.382       .  A
C685        H688   1.082       .  S
C686        C687   1.383       .  A
C687        H689   1.082       .  S
N690        N691   1.322       .  A
N690        C694   1.346       .  A
N691        C692   1.348       .  A
C692        C693   1.388       .  A
C692        H695   1.082       .  S
C693        C694   1.385       .  A
C693       C1549   1.485       .  S
C694        H696   1.082       .  S
N697        N698   1.322       .  A
N697        C701   1.344       .  A
N697       Cu705   2.070       .  S
N698        C699   1.347       .  A
N698       Cu704   2.078       .  S
C699        C700   1.384       .  A
C699        H702   1.082       .  S
C700        C701   1.382       .  A
C701        H703   1.082       .  S
Cu704       N707   2.078       .  S
Cu705       N715   2.070       .  S
Cu706       N708   2.080       .  S
Cu706       N714   2.078       .  S
N707        N708   1.324       .  A
N707        C711   1.345       .  A
N708        C709   1.346       .  A
C709        C710   1.383       .  A
C709        H712   1.082       .  S
C710        C711   1.382       .  A
C711        H713   1.082       .  S
N714        N715   1.322       .  A
N714        C718   1.347       .  A
N715        C716   1.344       .  A
C716        C717   1.383       .  A
C716        H719   1.082       .  S
C717        C718   1.385       .  A
C717       C1540   1.477       .  S
C718        H720   1.082       .  S
N721        N722   1.323       .  A
N721        C725   1.348       .  A
N721       Cu729   2.083       .  S
N722        C723   1.344       .  A
N722       Cu728   2.073       .  S
C723        C724   1.382       .  A
C723        H726   1.082       .  S
C724        C725   1.385       .  A
C724        C806   1.472       .  S
C725        H727   1.082       .  S
Cu728       N731   2.072       .  S
Cu729       N739   2.084       .  S
Cu730       N732   2.086       .  S
Cu730       N738   2.086       .  S
N731        N732   1.322       .  A
N731        C735   1.345       .  A
N732        C733   1.348       .  A
C733        C734   1.386       .  A
C733        H736   1.082       .  S
C734        C735   1.382       .  A
C734        C844   1.473       .  S
C735        H737   1.082       .  S
N738        N739   1.323       .  A
N738        C742   1.347       .  A
N739        C740   1.347       .  A
C740        C741   1.387       .  A
C740        H743   1.081       .  S
C741        C742   1.387       .  A
C741       C1525   1.487       .  S
C742        H744   1.082       .  S
N745        N746   1.322       .  A
N745        C749   1.347       .  A
N745       Cu753   2.081       .  S
N746        C747   1.345       .  A
N746       Cu752   2.074       .  S
C747        C748   1.382       .  A
C747        H750   1.082       .  S
C748        C749   1.385       .  A
C748        C830   1.472       .  S
C749        H751   1.082       .  S
Cu752       N755   2.074       .  S
Cu753       N763   2.081       .  S
Cu754       N756   2.094       .  S
Cu754       N762   2.094       .  S
N755        N756   1.323       .  A
N755        C759   1.345       .  A
N756        C757   1.349       .  A
C757        C758   1.387       .  A
C757        H760   1.082       .  S
C758        C759   1.381       .  A
C758        C854   1.474       .  S
C759        H761   1.082       .  S
N762        N763   1.323       .  A
N762        C766   1.349       .  A
N763        C764   1.345       .  A
C764        C765   1.386       .  A
C764        H767   1.081       .  S
C765        C766   1.390       .  A
C765       C1513   1.490       .  S
C766        H768   1.082       .  S
N769        N770   1.323       .  A
N769        C773   1.344       .  A
N769       Cu777   2.075       .  S
N770        C771   1.347       .  A
N770       Cu776   2.079       .  S
C771        C772   1.383       .  A
C771        H774   1.082       .  S
C772        C773   1.381       .  A
C772        C820   1.469       .  S
C773        H775   1.082       .  S
Cu776       N779   2.079       .  S
Cu777       N787   2.074       .  S
Cu778       N780   2.067       .  S
Cu778       N786   2.067       .  S
N779        N780   1.322       .  A
N779        C783   1.346       .  A
N780        C781   1.344       .  A
C781        C782   1.380       .  A
C781        H784   1.082       .  S
C782        C783   1.384       .  A
C782        C796   1.468       .  S
C783        H785   1.082       .  S
N786        N787   1.321       .  A
N786        C790   1.343       .  A
N787        C788   1.346       .  A
C788        C789   1.386       .  A
C788        H791   1.081       .  S
C789        C790   1.385       .  A
C789       C1501   1.480       .  S
C790        H792   1.082       .  S
N793        N794   1.322       .  A
N793        C797   1.345       .  A
N793       Cu801   2.068       .  S
N794        C795   1.345       .  A
N794       Cu800   2.074       .  S
C795        C796   1.383       .  A
C795        H798   1.082       .  S
C796        C797   1.381       .  A
C797        H799   1.082       .  S
Cu800       N803   2.075       .  S
Cu801       N811   2.069       .  S
Cu802       N804   2.083       .  S
Cu802       N810   2.082       .  S
N803        N804   1.323       .  A
N803        C807   1.346       .  A
N804        C805   1.346       .  A
C805        C806   1.384       .  A
C805        H808   1.082       .  S
C806        C807   1.382       .  A
C807        H809   1.082       .  S
N810        N811   1.322       .  A
N810        C814   1.347       .  A
N811        C812   1.344       .  A
C812        C813   1.383       .  A
C812        H815   1.082       .  S
C813        C814   1.385       .  A
C813       C1489   1.477       .  S
C814        H816   1.082       .  S
N817        N818   1.322       .  A
N817        C821   1.347       .  A
N817       Cu825   2.076       .  S
N818        C819   1.343       .  A
N818       Cu824   2.073       .  S
C819        C820   1.381       .  A
C819        H822   1.082       .  S
C820        C821   1.384       .  A
C821        H823   1.082       .  S
Cu824       N827   2.074       .  S
Cu825       N835   2.077       .  S
Cu826       N828   2.083       .  S
Cu826       N834   2.084       .  S
N827        N828   1.322       .  A
N827        C831   1.346       .  A
N828        C829   1.347       .  A
C829        C830   1.385       .  A
C829        H832   1.082       .  S
C830        C831   1.382       .  A
C831        H833   1.082       .  S
N834        N835   1.323       .  A
N834        C838   1.346       .  A
N835        C836   1.346       .  A
C836        C837   1.384       .  A
C836        H839   1.082       .  S
C837        C838   1.385       .  A
C837       C1477   1.480       .  S
C838        H840   1.082       .  S
N841        N842   1.324       .  A
N841        C845   1.347       .  A
N841       Cu849   2.088       .  S
N842        C843   1.346       .  A
N842       Cu848   2.079       .  S
C843        C844   1.382       .  A
C843        H846   1.082       .  S
C844        C845   1.385       .  A
C845        H847   1.082       .  S
Cu848       N851   2.078       .  S
Cu849       N859   2.088       .  S
Cu850       N852   2.083       .  S
Cu850       N858   2.082       .  S
N851        N852   1.322       .  A
N851        C855   1.347       .  A
N852        C853   1.347       .  A
C853        C854   1.385       .  A
C853        H856   1.082       .  S
C854        C855   1.383       .  A
C855        H857   1.082       .  S
N858        N859   1.323       .  A
N858        C862   1.345       .  A
N859        C860   1.349       .  A
C860        C861   1.387       .  A
C860        H863   1.082       .  S
C861        C862   1.384       .  A
C861       C1465   1.483       .  S
C862        H864   1.082       .  S
N865        N866   1.324       .  A
N865        C869   1.343       .  A
N865       Cu873   2.071       .  S
N866        C867   1.346       .  A
N866       Cu872   2.078       .  S
C867        C868   1.382       .  A
C867        H870   1.082       .  S
C868        C869   1.381       .  A
C868        C950   1.468       .  S
C869        H871   1.082       .  S
Cu872       N875   2.078       .  S
Cu873       N883   2.069       .  S
Cu874       N876   2.053       .  S
Cu874       N882   2.052       .  S
N875        N876   1.322       .  A
N875        C879   1.346       .  A
N876        C877   1.342       .  A
C877        C878   1.377       .  A
C877        H880   1.082       .  S
C878        C879   1.383       .  A
C878        C998   1.462       .  S
C879        H881   1.082       .  S
N882        N883   1.320       .  A
N882        C886   1.341       .  A
N883        C884   1.345       .  A
C884        C885   1.384       .  A
C884        H887   1.082       .  S
C885        C886   1.380       .  A
C885       C1453   1.470       .  S
C886        H888   1.082       .  S
N889        N890   1.322       .  A
N889        C893   1.344       .  A
N889       Cu897   2.067       .  S
N890        C891   1.345       .  A
N890       Cu896   2.074       .  S
C891        C892   1.382       .  A
C891        H894   1.082       .  S
C892        C893   1.381       .  A
C892        C974   1.465       .  S
C893        H895   1.082       .  S
Cu896       N899   2.074       .  S
Cu897       N907   2.067       .  S
Cu898       N900   2.081       .  S
Cu898       N906   2.081       .  S
N899        N900   1.323       .  A
N899        C903   1.346       .  A
N900        C901   1.346       .  A
C901        C902   1.383       .  A
C901        H904   1.082       .  S
C902        C903   1.382       .  A
C902        C988   1.470       .  S
C903        H905   1.082       .  S
N906        N907   1.322       .  A
N906        C910   1.346       .  A
N907        C908   1.345       .  A
C908        C909   1.382       .  A
C908        H911   1.082       .  S
C909        C910   1.384       .  A
C909       C1441   1.476       .  S
C910        H912   1.082       .  S
N913        N914   1.321       .  A
N913        C917   1.344       .  A
N913       Cu921   2.068       .  S
N914        C915   1.346       .  A
N914       Cu920   2.070       .  S
C915        C916   1.383       .  A
C915        H918   1.082       .  S
C916        C917   1.382       .  A
C916        C964   1.468       .  S
C917        H919   1.082       .  S
Cu920       N923   2.069       .  S
Cu921       N931   2.069       .  S
Cu922       N924   2.088       .  S
Cu922       N930   2.087       .  S
N923        N924   1.324       .  A
N923        C927   1.344       .  A
N924        C925   1.347       .  A
C925        C926   1.384       .  A
C925        H928   1.082       .  S
C926        C927   1.379       .  A
C926        C940   1.469       .  S
C927        H929   1.082       .  S
N930        N931   1.322       .  A
N930        C934   1.349       .  A
N931        C932   1.344       .  A
C932        C933   1.381       .  A
C932        H935   1.082       .  S
C933        C934   1.387       .  A
C933       C1432   1.478       .  S
C934        H936   1.082       .  S
N937        N938   1.322       .  A
N937        C941   1.346       .  A
N937       Cu945   2.077       .  S
N938        C939   1.345       .  A
N938       Cu944   2.070       .  S
C939        C940   1.381       .  A
C939        H942   1.082       .  S
C940        C941   1.384       .  A
C941        H943   1.082       .  S
Cu944       N947   2.070       .  S
Cu945       N955   2.076       .  S
Cu946       N948   2.075       .  S
Cu946       N954   2.076       .  S
N947        N948   1.322       .  A
N947        C951   1.343       .  A
N948        C949   1.347       .  A
C949        C950   1.383       .  A
C949        H952   1.082       .  S
C950        C951   1.381       .  A
C951        H953   1.082       .  S
N954        N955   1.323       .  A
N954        C958   1.345       .  A
N955        C956   1.346       .  A
C956        C957   1.383       .  A
C956        H959   1.082       .  S
C957        C958   1.384       .  A
C957       C1417   1.477       .  S
C958        H960   1.082       .  S
N961        N962   1.322       .  A
N961        C965   1.346       .  A
N961       Cu969   2.076       .  S
N962        C963   1.344       .  A
N962       Cu968   2.069       .  S
C963        C964   1.381       .  A
C963        H966   1.082       .  S
C964        C965   1.383       .  A
C965        H967   1.082       .  S
Cu968       N971   2.068       .  S
Cu969       N979   2.077       .  S
Cu970       N972   2.068       .  S
Cu970       N978   2.068       .  S
N971        N972   1.322       .  A
N971        C975   1.343       .  A
N972        C973   1.345       .  A
C973        C974   1.382       .  A
C973        H976   1.082       .  S
C974        C975   1.381       .  A
C975        H977   1.082       .  S
N978        N979   1.322       .  A
N978        C982   1.343       .  A
N979        C980   1.346       .  A
C980        C981   1.386       .  A
C980        H983   1.081       .  S
C981        C982   1.383       .  A
C981       C1405   1.479       .  S
C982        H984   1.082       .  S
N985        N986   1.324       .  A
N985        C989   1.347       .  A
N985       Cu993   2.083       .  S
N986        C987   1.345       .  A
N986       Cu992   2.076       .  S
C987        C988   1.381       .  A
C987        H990   1.082       .  S
C988        C989   1.384       .  A
C989        H991   1.082       .  S
Cu992       N995   2.076       .  S
Cu993      N1003   2.083       .  S
Cu994       N996   2.056       .  S
Cu994      N1002   2.057       .  S
N995        N996   1.321       .  A
N995        C999   1.345       .  A
N996        C997   1.344       .  A
C997        C998   1.378       .  A
C997       H1000   1.082       .  S
C998        C999   1.382       .  A
C999       H1001   1.082       .  S
N1002      N1003   1.322       .  A
N1002      C1006   1.342       .  A
N1003      C1004   1.347       .  A
C1004      C1005   1.386       .  A
C1004      H1007   1.082       .  S
C1005      C1006   1.381       .  A
C1005      C1393   1.476       .  S
C1006      H1008   1.082       .  S
N1009      N1010   1.321       .  A
N1009      C1013   1.345       .  A
N1009     Cu1017   2.059       .  S
N1010      C1011   1.343       .  A
N1010     Cu1016   2.069       .  S
C1011      C1012   1.382       .  A
C1011      H1014   1.082       .  S
C1012      C1013   1.381       .  A
C1012      C1142   1.464       .  S
C1013      H1015   1.082       .  S
Cu1016     N1019   2.070       .  S
Cu1017     N1027   2.060       .  S
Cu1018     N1020   2.085       .  S
Cu1018     N1026   2.084       .  S
N1019      N1020   1.323       .  A
N1019      C1023   1.344       .  A
N1020      C1021   1.347       .  A
C1021      C1022   1.385       .  A
C1021      H1024   1.082       .  S
C1022      C1023   1.380       .  A
C1022      C1118   1.471       .  S
C1023      H1025   1.082       .  S
N1026      N1027   1.322       .  A
N1026      C1030   1.347       .  A
N1027      C1028   1.341       .  A
C1028      C1029   1.381       .  A
C1028      H1031   1.081       .  S
C1029      C1030   1.387       .  A
C1029      C1384   1.477       .  S
C1030      H1032   1.082       .  S
N1033      N1034   1.322       .  A
N1033      C1037   1.347       .  A
N1033     Cu1041   2.082       .  S
N1034      C1035   1.344       .  A
N1034     Cu1040   2.070       .  S
C1035      C1036   1.380       .  A
C1035      H1038   1.082       .  S
C1036      C1037   1.384       .  A
C1036      C1084   1.469       .  S
C1037      H1039   1.082       .  S
Cu1040     N1043   2.069       .  S
Cu1041     N1051   2.082       .  S
Cu1042     N1044   2.083       .  S
Cu1042     N1050   2.084       .  S
N1043      N1044   1.322       .  A
N1043      C1047   1.344       .  A
N1044      C1045   1.347       .  A
C1045      C1046   1.385       .  A
C1045      H1048   1.082       .  S
C1046      C1047   1.381       .  A
C1046      C1132   1.471       .  S
C1047      H1049   1.082       .  S
N1050      N1051   1.323       .  A
N1050      C1054   1.346       .  A
N1051      C1052   1.346       .  A
C1052      C1053   1.387       .  A
C1052      H1055   1.082       .  S
C1053      C1054   1.388       .  A
C1053      C1369   1.488       .  S
C1054      H1056   1.081       .  S
N1057      N1058   1.320       .  A
N1057      C1061   1.344       .  A
N1057     Cu1065   2.063       .  S
N1058      C1059   1.344       .  A
N1058     Cu1064   2.065       .  S
C1059      C1060   1.382       .  A
C1059      H1062   1.082       .  S
C1060      C1061   1.382       .  A
C1060      C1094   1.464       .  S
C1061      H1063   1.082       .  S
Cu1064     N1067   2.066       .  S
Cu1065     N1075   2.065       .  S
Cu1066     N1068   2.105       .  S
Cu1066     N1074   2.105       .  S
N1067      N1068   1.324       .  A
N1067      C1071   1.343       .  A
N1068      C1069   1.351       .  A
C1069      C1070   1.389       .  A
C1069      H1072   1.082       .  S
C1070      C1071   1.379       .  A
C1070      C1108   1.476       .  S
C1071      H1073   1.082       .  S
N1074      N1075   1.323       .  A
N1074      C1078   1.351       .  A
N1075      C1076   1.343       .  A
C1076      C1077   1.381       .  A
C1076      H1079   1.082       .  S
C1077      C1078   1.392       .  A
C1077      C1357   1.486       .  S
C1078      H1080   1.082       .  S
N1081      N1082   1.322       .  A
N1081      C1085   1.345       .  A
N1081     Cu1089   2.075       .  S
N1082      C1083   1.346       .  A
N1082     Cu1088   2.075       .  S
C1083      C1084   1.382       .  A
C1083      H1086   1.082       .  S
C1084      C1085   1.383       .  A
C1085      H1087   1.082       .  S
Cu1088     N1091   2.074       .  S
Cu1089     N1099   2.075       .  S
Cu1090     N1092   2.065       .  S
Cu1090     N1098   2.065       .  S
N1091      N1092   1.322       .  A
N1091      C1095   1.344       .  A
N1092      C1093   1.345       .  A
C1093      C1094   1.381       .  A
C1093      H1096   1.082       .  S
C1094      C1095   1.381       .  A
C1095      H1097   1.082       .  S
N1098      N1099   1.322       .  A
N1098      C1102   1.342       .  A
N1099      C1100   1.346       .  A
C1100      C1101   1.385       .  A
C1100      H1103   1.081       .  S
C1101      C1102   1.383       .  A
C1101      C1345   1.477       .  S
C1102      H1104   1.082       .  S
N1105      N1106   1.322       .  A
N1105      C1109   1.347       .  A
N1105     Cu1113   2.095       .  S
N1106      C1107   1.347       .  A
N1106     Cu1112   2.068       .  S
C1107      C1108   1.382       .  A
C1107      H1110   1.082       .  S
C1108      C1109   1.387       .  A
C1109      H1111   1.082       .  S
Cu1112     N1115   2.068       .  S
Cu1113     N1123   2.095       .  S
Cu1114     N1116   2.089       .  S
Cu1114     N1122   2.089       .  S
N1115      N1116   1.323       .  A
N1115      C1119   1.345       .  A
N1116      C1117   1.347       .  A
C1117      C1118   1.385       .  A
C1117      H1120   1.082       .  S
C1118      C1119   1.380       .  A
C1119      H1121   1.082       .  S
N1122      N1123   1.323       .  A
N1122      C1126   1.350       .  A
N1123      C1124   1.347       .  A
C1124      C1125   1.389       .  A
C1124      H1127   1.082       .  S
C1125      C1126   1.389       .  A
C1125      C1333   1.492       .  S
C1126      H1128   1.082       .  S
N1129      N1130   1.324       .  A
N1129      C1133   1.346       .  A
N1129     Cu1137   2.087       .  S
N1130      C1131   1.345       .  A
N1130     Cu1136   2.075       .  S
C1131      C1132   1.381       .  A
C1131      H1134   1.082       .  S
C1132      C1133   1.384       .  A
C1133      H1135   1.082       .  S
Cu1136     N1139   2.074       .  S
Cu1137     N1147   2.085       .  S
Cu1138     N1140   2.057       .  S
Cu1138     N1146   2.058       .  S
N1139      N1140   1.321       .  A
N1139      C1143   1.346       .  A
N1140      C1141   1.342       .  A
C1141      C1142   1.379       .  A
C1141      H1144   1.082       .  S
C1142      C1143   1.383       .  A
C1143      H1145   1.082       .  S
N1146      N1147   1.321       .  A
N1146      C1150   1.342       .  A
N1147      C1148   1.348       .  A
C1148      C1149   1.387       .  A
C1148      H1151   1.082       .  S
C1149      C1150   1.380       .  A
C1149      C1321   1.476       .  S
C1150      H1152   1.082       .  S
O1153     Cu1161   2.016       .  S
O1153      C1163   1.279       .  A
O1154     Cu1161   2.023       .  S
O1154      C1164   1.279       .  A
O1155     Cu1161   2.010       .  S
O1155      C1165   1.278       .  A
O1156     Cu1161   2.020       .  S
O1156      C1166   1.279       .  A
O1157     Cu1162   2.002       .  S
O1157      C1166   1.277       .  A
O1158     Cu1162   2.011       .  S
O1158      C1165   1.278       .  A
O1159     Cu1162   2.012       .  S
O1159      C1164   1.279       .  A
O1160     Cu1162   2.007       .  S
O1160      C1163   1.278       .  A
Cu1161    Cu1162   2.371       .  S
C1163      C1420   1.479       .  S
C1164      C1564   1.486       .  S
C1165      C1324   1.480       .  S
C1166      C1492   1.480       .  S
O1167     Cu1175   2.002       .  S
O1167      C1177   1.277       .  A
O1168     Cu1175   2.001       .  S
O1168      C1178   1.278       .  A
O1169     Cu1175   2.013       .  S
O1169      C1179   1.278       .  A
O1170     Cu1175   2.008       .  S
O1170      C1180   1.278       .  A
O1171     Cu1176   2.038       .  S
O1171      C1180   1.281       .  A
O1172     Cu1176   2.028       .  S
O1172      C1179   1.280       .  A
O1173     Cu1176   2.018       .  S
O1173      C1178   1.279       .  A
O1174     Cu1176   2.018       .  S
O1174      C1177   1.279       .  A
Cu1175    Cu1176   2.369       .  S
C1177      C1537   1.484       .  S
C1178      C1756   1.484       .  S
C1179      C1696   1.482       .  S
C1180      C1336   1.486       .  S
O1181     Cu1189   2.004       .  S
O1181      C1191   1.278       .  A
O1182     Cu1189   2.009       .  S
O1182      C1192   1.278       .  A
O1183     Cu1189   2.002       .  S
O1183      C1193   1.277       .  A
O1184     Cu1189   1.995       .  S
O1184      C1194   1.276       .  A
O1185     Cu1190   2.024       .  S
O1185      C1194   1.280       .  A
O1186     Cu1190   2.013       .  S
O1186      C1193   1.278       .  A
O1187     Cu1190   2.015       .  S
O1187      C1192   1.279       .  A
O1188     Cu1190   2.008       .  S
O1188      C1191   1.278       .  A
Cu1189    Cu1190   2.373       .  S
C1191      C1348   1.475       .  S
C1192      C1825   1.480       .  S
C1193      C1408   1.475       .  S
C1194      C1768   1.481       .  S
O1195     Cu1203   2.008       .  S
O1195      C1205   1.278       .  A
O1196     Cu1203   2.006       .  S
O1196      C1206   1.278       .  A
O1197     Cu1203   2.013       .  S
O1197      C1207   1.278       .  A
O1198     Cu1203   2.015       .  S
O1198      C1208   1.279       .  A
O1199     Cu1204   1.994       .  S
O1199      C1208   1.276       .  A
O1200     Cu1204   2.013       .  S
O1200      C1207   1.278       .  A
O1201     Cu1204   2.010       .  S
O1201      C1206   1.278       .  A
O1202     Cu1204   2.014       .  S
O1202      C1205   1.278       .  A
Cu1203    Cu1204   2.372       .  S
C1205      C1633   1.477       .  S
C1206      C1396   1.478       .  S
C1207      C1480   1.481       .  S
C1208      C1840   1.474       .  S
O1209     Cu1217   2.011       .  S
O1209      C1219   1.278       .  A
O1210     Cu1217   2.011       .  S
O1210      C1220   1.279       .  A
O1211     Cu1217   2.012       .  S
O1211      C1221   1.278       .  A
O1212     Cu1217   2.019       .  S
O1212      C1222   1.279       .  A
O1213     Cu1218   2.017       .  S
O1213      C1222   1.279       .  A
O1214     Cu1218   2.029       .  S
O1214      C1221   1.280       .  A
O1215     Cu1218   2.021       .  S
O1215      C1220   1.279       .  A
O1216     Cu1218   2.022       .  S
O1216      C1219   1.279       .  A
Cu1217    Cu1218   2.370       .  S
C1219      C1468   1.483       .  S
C1220      C1684   1.491       .  S
C1221      C1612   1.483       .  S
C1222      C1552   1.482       .  S
O1223     Cu1231   2.031       .  S
O1223      C1233   1.281       .  A
O1224     Cu1231   2.029       .  S
O1224      C1234   1.280       .  A
O1225     Cu1231   2.015       .  S
O1225      C1235   1.279       .  A
O1226     Cu1231   2.022       .  S
O1226      C1236   1.279       .  A
O1227     Cu1232   2.011       .  S
O1227      C1236   1.278       .  A
O1228     Cu1232   2.005       .  S
O1228      C1235   1.277       .  A
O1229     Cu1232   2.007       .  S
O1229      C1234   1.278       .  A
O1230     Cu1232   2.005       .  S
O1230      C1233   1.278       .  A
Cu1231    Cu1232   2.372       .  S
C1233      C1621   1.487       .  S
C1234      C1777   1.483       .  S
C1235      C1708   1.477       .  S
C1236      C1849   1.477       .  S
O1237     Cu1245   2.013       .  S
O1237      C1247   1.278       .  A
O1238     Cu1245   2.008   1_645  S
O1238      C1248   1.278       .  A
O1239     Cu1245   2.013   1_545  S
O1239      C1249   1.278       .  A
O1240     Cu1245   2.022   1_655  S
O1240      C1250   1.279       .  A
O1241     Cu1246   2.015   1_655  S
O1241      C1250   1.278       .  A
O1242     Cu1246   2.024   1_545  S
O1242      C1249   1.280       .  A
O1243     Cu1246   2.013   1_645  S
O1243      C1248   1.278       .  A
O1244     Cu1246   2.019       .  S
O1244      C1247   1.280       .  A
Cu1245    Cu1246   2.371       .  S
C1247      C1588   1.485       .  S
C1248      C1444   1.479       .  S
C1249      C1360   1.486       .  S
C1250      C1516   1.481       .  S
O1251     Cu1259   2.004   1_645  S
O1251      C1261   1.278       .  A
O1252     Cu1259   2.014       .  S
O1252      C1262   1.279       .  A
O1253     Cu1259   2.009   1_655  S
O1253      C1263   1.277       .  A
O1254     Cu1259   2.009   1_545  S
O1254      C1264   1.278       .  A
O1255     Cu1260   2.018   1_545  S
O1255      C1264   1.279       .  A
O1256     Cu1260   2.020   1_655  S
O1256      C1263   1.279       .  A
O1257     Cu1260   2.012       .  S
O1257      C1262   1.278       .  A
O1258     Cu1260   2.008   1_645  S
O1258      C1261   1.278       .  A
Cu1259    Cu1260   2.369       .  S
C1261      C1876   1.478       .  S
C1262      C1729   1.480       .  S
C1263      C1672   1.481       .  S
C1264      C1804   1.486       .  S
O1265     Cu1273   2.020   1_546  S
O1265      C1275   1.280       .  A
O1266     Cu1273   2.025       .  S
O1266      C1276   1.279       .  A
O1267     Cu1273   2.018   1_556  S
O1267      C1277   1.279       .  A
O1268     Cu1273   2.016   1_545  S
O1268      C1278   1.279       .  A
O1269     Cu1274   2.013   1_545  S
O1269      C1278   1.277       .  A
O1270     Cu1274   2.005   1_556  S
O1270      C1277   1.277       .  A
O1271     Cu1274   2.029       .  S
O1271      C1276   1.280       .  A
O1272     Cu1274   2.031   1_546  S
O1272      C1275   1.280       .  A
Cu1273    Cu1274   2.367       .  S
C1275      C1792   1.494       .  S
C1276      C1576   1.489       .  S
C1277      C1744   1.478       .  S
C1278      C1372   1.477       .  S
O1279     Cu1287   2.011   1_556  S
O1279      C1289   1.278   1_455  A
O1280     Cu1287   2.011       .  S
O1280      C1290   1.278       .  A
O1281     Cu1287   2.000       .  S
O1281      C1291   1.277   1_455  A
O1282     Cu1287   2.004   1_556  S
O1282      C1292   1.277       .  A
O1283     Cu1288   1.999   1_556  S
O1283      C1292   1.277       .  A
O1284     Cu1288   1.997       .  S
O1284      C1291   1.277   1_455  A
O1285     Cu1288   2.002       .  S
O1285      C1290   1.277       .  A
O1286     Cu1288   1.998   1_556  S
O1286      C1289   1.276   1_455  A
Cu1287    Cu1288   2.372       .  S
C1289      C1864   1.473       .  S
C1290      C1381   1.473       .  S
C1291      C1456   1.471       .  S
C1292      C1816   1.469       .  S
O1293     Cu1301   2.014       .  S
O1293      C1303   1.278       .  A
O1294     Cu1301   2.009   1_546  S
O1294      C1304   1.278       .  A
O1295     Cu1301   2.016   1_545  S
O1295      C1305   1.279       .  A
O1296     Cu1301   2.013   1_556  S
O1296      C1306   1.278       .  A
O1297     Cu1302   2.021   1_556  S
O1297      C1306   1.279       .  A
O1298     Cu1302   2.015   1_545  S
O1298      C1305   1.278       .  A
O1299     Cu1302   2.018   1_546  S
O1299      C1304   1.280       .  A
O1300     Cu1302   2.024       .  S
O1300      C1303   1.279       .  A
Cu1301    Cu1302   2.371       .  S
C1303      C1528   1.482       .  S
C1304      C1885   1.488       .  S
C1305      C1429   1.482       .  S
C1306      C1660   1.484       .  S
O1307     Cu1315   2.002       .  S
O1307      C1317   1.277   1_455  A
O1308     Cu1315   2.005   1_556  S
O1308      C1318   1.277       .  A
O1309     Cu1315   2.015       .  S
O1309      C1319   1.279       .  A
O1310     Cu1315   2.016   1_556  S
O1310      C1320   1.279   1_455  A
O1311     Cu1316   2.024   1_556  S
O1311      C1320   1.279   1_455  A
O1312     Cu1316   2.028       .  S
O1312      C1319   1.280       .  A
O1313     Cu1316   2.012   1_556  S
O1313      C1318   1.278       .  A
O1314     Cu1316   2.014       .  S
O1314      C1317   1.278   1_455  A
Cu1315    Cu1316   2.369       .  S
C1317      C1504   1.477       .  S
C1318      C1720   1.472       .  S
C1319      C1597   1.486       .  S
C1320      C1648   1.484       .  S
C1321      C1322   1.403       .  A
C1321      C1326   1.406       .  A
C1322      C1323   1.399       .  A
C1322      H1327   1.084       .  S
C1323      C1324   1.410       .  A
C1323      O1328   1.372       .  S
C1324      C1325   1.406       .  A
C1325      C1326   1.402       .  A
C1325      H1329   1.084       .  S
C1326      O1330   1.371       .  S
O1328      H1332   0.993       .  S
O1330      H1331   0.991       .  S
C1333      C1334   1.405       .  A
C1333      C1338   1.413       .  A
C1334      C1335   1.401       .  A
C1334      H1339   1.083       .  S
C1335      C1336   1.409       .  A
C1335      O1340   1.372       .  S
C1336      C1337   1.405       .  A
C1337      C1338   1.410       .  A
C1337      H1341   1.083       .  S
C1338      O1342   1.372       .  S
O1340      H1344   0.992       .  S
O1342      H1343   0.992       .  S
C1345      C1346   1.403       .  A
C1345      C1350   1.409       .  A
C1346      C1347   1.397       .  A
C1346      H1351   1.083       .  S
C1347      C1348   1.408       .  A
C1347      O1352   1.372       .  S
C1348      C1349   1.404       .  A
C1349      C1350   1.402       .  A
C1349      H1353   1.084       .  S
C1350      O1354   1.372       .  S
O1352      H1356   0.992       .  S
O1354      H1355   0.992       .  S
C1357      C1358   1.406       .  A
C1357      C1362   1.408       .  A
C1358      C1359   1.403       .  A
C1358      H1363   1.083       .  S
C1359      C1360   1.410       .  A
C1359      O1364   1.372       .  S
C1360      C1361   1.406       .  A
C1361      C1362   1.404       .  A
C1361      H1365   1.084       .  S
C1362      O1366   1.371       .  S
O1364      H1368   0.992       .  S
O1366      H1367   0.991       .  S
C1369      C1370   1.407       .  A
C1369      C1374   1.413       .  A
C1370      C1371   1.403       .  A
C1370      H1375   1.083       .  S
C1371      C1372   1.407       .  A
C1371      O1376   1.372       .  S
C1372      C1373   1.402       .  A
C1373      C1374   1.402       .  A
C1373      H1377   1.084       .  S
C1374      O1378   1.371       .  S
O1376      H1380   0.992       .  S
O1378      H1379   0.993       .  S
C1381      C1382   1.401       .  A
C1381      C1386   1.408       .  A
C1382      C1383   1.399       .  A
C1382      H1387   1.084       .  S
C1383      C1384   1.410       .  A
C1383      O1388   1.372       .  S
C1384      C1385   1.403       .  A
C1385      C1386   1.401       .  A
C1385      H1389   1.083       .  S
C1386      O1390   1.372       .  S
O1388      H1392   0.992       .  S
O1390      H1391   0.992       .  S
C1393      C1394   1.402       .  A
C1393      C1398   1.409       .  A
C1394      C1395   1.400       .  A
C1394      H1399   1.084       .  S
C1395      C1396   1.411       .  A
C1395      O1400   1.372       .  S
C1396      C1397   1.404       .  A
C1397      C1398   1.399       .  A
C1397      H1401   1.084       .  S
C1398      O1402   1.372       .  S
O1400      H1404   0.992       .  S
O1402      H1403   0.992       .  S
C1405      C1406   1.404       .  A
C1405      C1410   1.410       .  A
C1406      C1407   1.398       .  A
C1406      H1411   1.083       .  S
C1407      C1408   1.408       .  A
C1407      O1412   1.372       .  S
C1408      C1409   1.403       .  A
C1409      C1410   1.402       .  A
C1409      H1413   1.084       .  S
C1410      O1414   1.372       .  S
O1412      H1416   0.992       .  S
O1414      H1415   0.992       .  S
C1417      C1418   1.403       .  A
C1417      C1422   1.408       .  A
C1418      C1419   1.402       .  A
C1418      H1423   1.084       .  S
C1419      C1420   1.410       .  A
C1419      O1424   1.372       .  S
C1420      C1421   1.405       .  A
C1421      C1422   1.400       .  A
C1421      H1425   1.084       .  S
C1422      O1426   1.372       .  S
O1424      H1428   0.992       .  S
O1426      H1427   0.992       .  S
C1429      C1430   1.406       .  A
C1429      C1434   1.410       .  A
C1430      C1431   1.402       .  A
C1430      H1435   1.084       .  S
C1431      C1432   1.406       .  A
C1431      O1436   1.371       .  S
C1432      C1433   1.404       .  A
C1433      C1434   1.402       .  A
C1433      H1437   1.084       .  S
C1434      O1438   1.372       .  S
O1436      H1440   0.992       .  S
O1438      H1439   0.992       .  S
C1441      C1442   1.401       .  A
C1441      C1446   1.409       .  A
C1442      C1443   1.400       .  A
C1442      H1447   1.084       .  S
C1443      C1444   1.410       .  A
C1443      O1448   1.372       .  S
C1444      C1445   1.405       .  A
C1445      C1446   1.401       .  A
C1445      H1449   1.084       .  S
C1446      O1450   1.372       .  S
O1448      H1452   0.992       .  S
O1450      H1451   0.992       .  S
C1453      C1454   1.402       .  A
C1453      C1458   1.406       .  A
C1454      C1455   1.396       .  A
C1454      H1459   1.084       .  S
C1455      C1456   1.408       .  A
C1455      O1460   1.372       .  S
C1456      C1457   1.404       .  A
C1457      C1458   1.399       .  A
C1457      H1461   1.084       .  S
C1458      O1462   1.372       .  S
O1460      H1464   0.992       .  S
O1462      H1463   0.992       .  S
C1465      C1466   1.404       .  A
C1465      C1470   1.409       .  A
C1466      C1467   1.401       .  A
C1466      H1471   1.084       .  S
C1467      C1468   1.410       .  A
C1467      O1472   1.372       .  S
C1468      C1469   1.406       .  A
C1469      C1470   1.405       .  A
C1469      H1473   1.084       .  S
C1470      O1474   1.371       .  S
O1472      H1476   0.992       .  S
O1474      H1475   0.992       .  S
C1477      C1478   1.403       .  A
C1477      C1482   1.410       .  A
C1478      C1479   1.401       .  A
C1478      H1483   1.084       .  S
C1479      C1480   1.410       .  A
C1479      O1484   1.371       .  S
C1480      C1481   1.405       .  A
C1481      C1482   1.402       .  A
C1481      H1485   1.084       .  S
C1482      O1486   1.372       .  S
O1484      H1488   0.992       .  S
O1486      H1487   0.992       .  S
C1489      C1490   1.403       .  A
C1489      C1494   1.408       .  A
C1490      C1491   1.403       .  A
C1490      H1495   1.084       .  S
C1491      C1492   1.410       .  A
C1491      O1496   1.371       .  S
C1492      C1493   1.405       .  A
C1493      C1494   1.400       .  A
C1493      H1497   1.084       .  S
C1494      O1498   1.372       .  S
O1496      H1500   0.992       .  S
O1498      H1499   0.992       .  S
C1501      C1502   1.404       .  A
C1501      C1506   1.410       .  A
C1502      C1503   1.397       .  A
C1502      H1507   1.083       .  S
C1503      C1504   1.409       .  A
C1503      O1508   1.372       .  S
C1504      C1505   1.404       .  A
C1505      C1506   1.404       .  A
C1505      H1509   1.084       .  S
C1506      O1510   1.372       .  S
O1508      H1512   0.992       .  S
O1510      H1511   0.991       .  S
C1513      C1514   1.406       .  A
C1513      C1518   1.413       .  A
C1514      C1515   1.404       .  A
C1514      H1519   1.083       .  S
C1515      C1516   1.409       .  A
C1515      O1520   1.372       .  S
C1516      C1517   1.402       .  A
C1517      C1518   1.404       .  A
C1517      H1521   1.084       .  S
C1518      O1522   1.372       .  S
O1520      H1524   0.992       .  S
O1522      H1523   0.992       .  S
C1525      C1526   1.406       .  A
C1525      C1530   1.411       .  A
C1526      C1527   1.403       .  A
C1526      H1531   1.083       .  S
C1527      C1528   1.409       .  A
C1527      O1532   1.372       .  S
C1528      C1529   1.404       .  A
C1529      C1530   1.404       .  A
C1529      H1533   1.084       .  S
C1530      O1534   1.372       .  S
O1532      H1536   0.992       .  S
O1534      H1535   0.992       .  S
C1537      C1538   1.407       .  A
C1537      C1542   1.413       .  A
C1538      C1539   1.403       .  A
C1538      H1543   1.083       .  S
C1539      C1540   1.407       .  A
C1539      O1544   1.372       .  S
C1540      C1541   1.402       .  A
C1541      C1542   1.399       .  A
C1541      H1545   1.084       .  S
C1542      O1546   1.372       .  S
O1544      H1548   0.991       .  S
O1546      H1547   0.991       .  S
C1549      C1550   1.404       .  A
C1549      C1554   1.412       .  A
C1550      C1551   1.402       .  A
C1550      H1555   1.083       .  S
C1551      C1552   1.409       .  A
C1551      O1556   1.371       .  S
C1552      C1553   1.404       .  A
C1553      C1554   1.405       .  A
C1553      H1557   1.084       .  S
C1554      O1558   1.372       .  S
O1556      H1560   0.992       .  S
O1558      H1559   0.992       .  S
C1561      C1562   1.405       .  A
C1561      C1566   1.411       .  A
C1562      C1563   1.406       .  A
C1562      H1567   1.083       .  S
C1563      C1564   1.411       .  A
C1563      O1568   1.371       .  S
C1564      C1565   1.404       .  A
C1565      C1566   1.402       .  A
C1565      H1569   1.084       .  S
C1566      O1570   1.372       .  S
O1568      H1572   0.992       .  S
O1570      H1571   0.992       .  S
C1573      C1574   1.406       .  A
C1573      C1578   1.413       .  A
C1574      C1575   1.406       .  A
C1574      H1579   1.083       .  S
C1575      C1576   1.411       .  A
C1575      O1580   1.372       .  S
C1576      C1577   1.405       .  A
C1577      C1578   1.405       .  A
C1577      H1581   1.084       .  S
C1578      O1582   1.371       .  S
O1580      H1584   0.991       .  S
O1582      H1583   0.992       .  S
C1585      C1586   1.403       .  A
C1585      C1590   1.410       .  A
C1586      C1587   1.404       .  A
C1586      H1591   1.084       .  S
C1587      C1588   1.412       .  A
C1587      O1592   1.372       .  S
C1588      C1589   1.405       .  A
C1589      C1590   1.401       .  A
C1589      H1593   1.084       .  S
C1590      O1594   1.371       .  S
O1592      H1596   0.992       .  S
O1594      H1595   0.992       .  S
C1597      C1598   1.404       .  A
C1597      C1602   1.411       .  A
C1598      C1599   1.403       .  A
C1598      H1603   1.084       .  S
C1599      C1600   1.410       .  A
C1599      O1604   1.372       .  S
C1600      C1601   1.406       .  A
C1601      C1602   1.407       .  A
C1601      H1605   1.083       .  S
C1602      O1606   1.371       .  S
O1604      H1608   0.991       .  S
O1606      H1607   0.992       .  S
C1609      C1610   1.406       .  A
C1609      C1614   1.410       .  A
C1610      C1611   1.407       .  A
C1610      H1615   1.083       .  S
C1611      C1612   1.409       .  A
C1611      O1616   1.371       .  S
C1612      C1613   1.403       .  A
C1613      C1614   1.402       .  A
C1613      H1617   1.084       .  S
C1614      O1618   1.372       .  S
O1616      H1620   0.992       .  S
O1618      H1619   0.992       .  S
C1621      C1622   1.405       .  A
C1621      C1626   1.413       .  A
C1622      C1623   1.400       .  A
C1622      H1627   1.084       .  S
C1623      C1624   1.406       .  A
C1623      O1628   1.372       .  S
C1624      C1625   1.404       .  A
C1625      C1626   1.407       .  A
C1625      H1629   1.084       .  S
C1626      O1630   1.371       .  S
O1628      H1632   0.991       .  S
O1630      H1631   0.992       .  S
C1633      C1634   1.401       .  A
C1633      C1638   1.410       .  A
C1634      C1635   1.399       .  A
C1634      H1639   1.084       .  S
C1635      C1636   1.411       .  A
C1635      O1640   1.371       .  S
C1636      C1637   1.404       .  A
C1637      C1638   1.404       .  A
C1637      H1641   1.083       .  S
C1638      O1642   1.372       .  S
O1640      H1644   0.992       .  S
O1642      H1643   0.992       .  S
C1645      C1646   1.405       .  A
C1645      C1650   1.409       .  A
C1646      C1647   1.402       .  A
C1646      H1651   1.083       .  S
C1647      C1648   1.409       .  A
C1647      O1652   1.372       .  S
C1648      C1649   1.407       .  A
C1649      C1650   1.405       .  A
C1649      H1653   1.083       .  S
C1650      O1654   1.371       .  S
O1652      H1656   0.992       .  S
O1654      H1655   0.992       .  S
C1657      C1658   1.405       .  A
C1657      C1662   1.410       .  A
C1658      C1659   1.405       .  A
C1658      H1663   1.083       .  S
C1659      C1660   1.411       .  A
C1659      O1664   1.372       .  S
C1660      C1661   1.404       .  A
C1661      C1662   1.402       .  A
C1661      H1665   1.084       .  S
C1662      O1666   1.372       .  S
O1664      H1668   0.992       .  S
O1666      H1667   0.992       .  S
C1669      C1670   1.404       .  A
C1669      C1674   1.411       .  A
C1670      C1671   1.403       .  A
C1670      H1675   1.083       .  S
C1671      C1672   1.411       .  A
C1671      O1676   1.372       .  S
C1672      C1673   1.402       .  A
C1673      C1674   1.402       .  A
C1673      H1677   1.084       .  S
C1674      O1678   1.372       .  S
O1676      H1680   0.992       .  S
O1678      H1679   0.992       .  S
C1681      C1682   1.401       .  A
C1681      C1686   1.404       .  A
C1682      C1683   1.405       .  A
C1682      H1687   1.084       .  S
C1683      C1684   1.416       .  A
C1683      O1688   1.371       .  S
C1684      C1685   1.408       .  A
C1685      C1686   1.400       .  A
C1685      H1689   1.083       .  S
C1686      O1690   1.372       .  S
O1688      H1692   0.992       .  S
O1690      H1691   0.991       .  S
C1693      C1694   1.406       .  A
C1693      C1698   1.412       .  A
C1694      C1695   1.405       .  A
C1694      H1699   1.083       .  S
C1695      C1696   1.409       .  A
C1695      O1700   1.371       .  S
C1696      C1697   1.403       .  A
C1697      C1698   1.402       .  A
C1697      H1701   1.084       .  S
C1698      O1702   1.371       .  S
O1700      H1704   0.991       .  S
O1702      H1703   0.992       .  S
C1705      C1706   1.403       .  A
C1705      C1710   1.407       .  A
C1706      C1707   1.399       .  A
C1706      H1711   1.084       .  S
C1707      C1708   1.410       .  A
C1707      O1712   1.372       .  S
C1708      C1709   1.405       .  A
C1709      C1710   1.402       .  A
C1709      H1713   1.084       .  S
C1710      O1714   1.372       .  S
O1712      H1716   0.992       .  S
O1714      H1715   0.992       .  S
C1717      C1718   1.405       .  A
C1717      C1722   1.410       .  A
C1718      C1719   1.400       .  A
C1718      H1723   1.083       .  S
C1719      C1720   1.406       .  A
C1719      O1724   1.372       .  S
C1720      C1721   1.402       .  A
C1721      C1722   1.401       .  A
C1721      H1725   1.084       .  S
C1722      O1726   1.372       .  S
O1724      H1728   0.992       .  S
O1726      H1727   0.992       .  S
C1729      C1730   1.403       .  A
C1729      C1734   1.410       .  A
C1730      C1731   1.401       .  A
C1730      H1735   1.084       .  S
C1731      C1732   1.410       .  A
C1731      O1736   1.372       .  S
C1732      C1733   1.404       .  A
C1733      C1734   1.403       .  A
C1733      H1737   1.084       .  S
C1734      O1738   1.372       .  S
O1736      H1740   0.992       .  S
O1738      H1739   0.992       .  S
C1741      C1742   1.403       .  A
C1741      C1746   1.411       .  A
C1742      C1743   1.400       .  A
C1742      H1747   1.083       .  S
C1743      C1744   1.409       .  A
C1743      O1748   1.372       .  S
C1744      C1745   1.404       .  A
C1745      C1746   1.402       .  A
C1745      H1749   1.084       .  S
C1746      O1750   1.371       .  S
O1748      H1752   0.992       .  S
O1750      H1751   0.992       .  S
C1753      C1754   1.404       .  A
C1753      C1758   1.407       .  A
C1754      C1755   1.404       .  A
C1754      H1759   1.084       .  S
C1755      C1756   1.413       .  A
C1755      O1760   1.371       .  S
C1756      C1757   1.405       .  A
C1757      C1758   1.397       .  A
C1757      H1761   1.083       .  S
C1758      O1762   1.372       .  S
O1760      H1764   0.992       .  S
O1762      H1763   0.991       .  S
C1765      C1766   1.403       .  A
C1765      C1770   1.405       .  A
C1766      C1767   1.402       .  A
C1766      H1771   1.084       .  S
C1767      C1768   1.410       .  A
C1767      O1772   1.371       .  S
C1768      C1769   1.406       .  A
C1769      C1770   1.399       .  A
C1769      H1773   1.084       .  S
C1770      O1774   1.372       .  S
O1772      H1776   0.991       .  S
O1774      H1775   0.992       .  S
C1777      C1778   1.406       .  A
C1777      C1782   1.410       .  A
C1778      C1779   1.407       .  A
C1778      H1783   1.083       .  S
C1779      C1780   1.410       .  A
C1779      O1784   1.371       .  S
C1780      C1781   1.404       .  A
C1781      C1782   1.400       .  A
C1781      H1785   1.084       .  S
C1782      O1786   1.372       .  S
O1784      H1788   0.991       .  S
O1786      H1787   0.992       .  S
C1789      C1790   1.403       .  A
C1789      C1794   1.408       .  A
C1790      C1791   1.408       .  A
C1790      H1795   1.084       .  S
C1791      C1792   1.415       .  A
C1791      O1796   1.371       .  S
C1792      C1793   1.407       .  A
C1793      C1794   1.402       .  A
C1793      H1797   1.083       .  S
C1794      O1798   1.372       .  S
O1796      H1800   0.992       .  S
O1798      H1799   0.992       .  S
C1801      C1802   1.402       .  A
C1801      C1806   1.407       .  A
C1802      C1803   1.399       .  A
C1802      H1807   1.084       .  S
C1803      C1804   1.412       .  A
C1803      O1808   1.372       .  S
C1804      C1805   1.408       .  A
C1805      C1806   1.404       .  A
C1805      H1809   1.083       .  S
C1806      O1810   1.371       .  S
O1808      H1812   0.991       .  S
O1810      H1811   0.991       .  S
C1813      C1814   1.404       .  A
C1813      C1818   1.410       .  A
C1814      C1815   1.399       .  A
C1814      H1819   1.083       .  S
C1815      C1816   1.407       .  A
C1815      O1820   1.372       .  S
C1816      C1817   1.401       .  A
C1817      C1818   1.398       .  A
C1817      H1821   1.084       .  S
C1818      O1822   1.371       .  S
O1820      H1824   0.992       .  S
O1822      H1823   0.992       .  S
C1825      C1826   1.404       .  A
C1825      C1830   1.410       .  A
C1826      C1827   1.401       .  A
C1826      H1831   1.084       .  S
C1827      C1828   1.409       .  A
C1827      O1832   1.372       .  S
C1828      C1829   1.402       .  A
C1829      C1830   1.401       .  A
C1829      H1833   1.084       .  S
C1830      O1834   1.372       .  S
O1832      H1836   0.992       .  S
O1834      H1835   0.992       .  S
C1837      C1838   1.402       .  A
C1837      C1842   1.410       .  A
C1838      C1839   1.398       .  A
C1838      H1843   1.084       .  S
C1839      C1840   1.409       .  A
C1839      O1844   1.372       .  S
C1840      C1841   1.403       .  A
C1841      C1842   1.401       .  A
C1841      H1845   1.084       .  S
C1842      O1846   1.372       .  S
O1844      H1848   0.992       .  S
O1846      H1847   0.992       .  S
C1849      C1850   1.403       .  A
C1849      C1854   1.406       .  A
C1850      C1851   1.405       .  A
C1850      H1855   1.084       .  S
C1851      C1852   1.411       .  A
C1851      O1856   1.371       .  S
C1852      C1853   1.407       .  A
C1853      C1854   1.402       .  A
C1853      H1857   1.083       .  S
C1854      O1858   1.372       .  S
O1856      H1860   0.992       .  S
O1858      H1859   0.992       .  S
C1861      C1862   1.402       .  A
C1861      C1866   1.408       .  A
C1862      C1863   1.399       .  A
C1862      H1867   1.084       .  S
C1863      C1864   1.409       .  A
C1863      O1868   1.372       .  S
C1864      C1865   1.403       .  A
C1865      C1866   1.399       .  A
C1865      H1869   1.084       .  S
C1866      O1870   1.371       .  S
O1868      H1872   0.992       .  S
O1870      H1871   0.991       .  S
C1873      C1874   1.402       .  A
C1873      C1878   1.407       .  A
C1874      C1875   1.401       .  A
C1874      H1879   1.084       .  S
C1875      C1876   1.411       .  A
C1875      O1880   1.372       .  S
C1876      C1877   1.404       .  A
C1877      C1878   1.398       .  A
C1877      H1881   1.084       .  S
C1878      O1882   1.372       .  S
O1880      H1884   0.992       .  S
O1882      H1883   0.991       .  S
C1885      C1886   1.407       .  A
C1885      C1890   1.415       .  A
C1886      C1887   1.401       .  A
C1886      H1891   1.083       .  S
C1887      C1888   1.406       .  A
C1887      O1892   1.372       .  S
C1888      C1889   1.400       .  A
C1889      C1890   1.403       .  A
C1889      H1893   1.084       .  S
C1890      O1894   1.372       .  S
O1892      H1896   0.991       .  S
O1894      H1895   0.992       .  S
