geometry optimzed in LAMMPS
_audit_creation_date              2020-11-30 
_audit_creation_method            'lammps2cif' 
_symmetry_space_group_name_H-M    'P1' 
_symmetry_Int_Tables_number       1 
_symmetry_cell_setting            triclinic 
loop_ 
_symmetry_equiv_pos_as_xyz 
  x,y,z 
_cell_length_a                    24.10253786 
_cell_length_b                    50.75608726078876 
_cell_length_c                    24.664293207427317 
_cell_angle_alpha                 89.63124297380135 
_cell_angle_beta                  89.14341168973846 
_cell_angle_gamma                 89.50147108513987 
loop_ 
_atom_site_label 
_atom_site_type_symbol 
_atom_site_fract_x 
_atom_site_fract_y 
_atom_site_fract_z 
_atom_site_charge 
O1          O  0.44192921  0.23165182  0.09405036    -0.80900
O2          O  0.57162968  0.26293977  0.39180859    -0.80900
O3          O  0.40895404  0.21669595  0.41403828    -0.80900
O4          O  0.60392705  0.24133861  0.02163786    -0.80900
O5          O  0.49216925  0.22359740  0.37381608    -0.81000
O6          O  0.53997637  0.22058320  0.06285966    -0.80900
O7          O  0.60367943  0.24753185  0.46734405    -0.80900
O8          O  0.41941335  0.20937461  0.02249616    -0.80900
C9          C  0.42055355  0.21146241  0.07257742     1.08800
C10         C  0.60427198  0.24773713  0.41536625     1.08700
C11         C  0.44794630  0.21048541  0.38007042     1.08800
C12         C  0.59079198  0.22278581  0.05462892     1.08700
O13         O  0.52957952  0.26652810  0.12148140    -0.80900
O14         O  0.41269363  0.26121519  0.36948201    -0.81000
O15         O  0.37940389  0.26311457  0.05175279    -0.80900
O16         O  0.56092904  0.29764524  0.46150968    -0.80900
O17         O  0.48494915  0.29800504  0.41418333    -0.80900
O18         O  0.45438094  0.28667057  0.05221754    -0.80900
O19         O  0.58459864  0.28642366  0.06251071    -0.80900
O20         O  0.37513087  0.27164106  0.44539668    -0.80900
Co21       Co  0.49844655  0.25380892  0.05323303     1.51500
Co22       Co  0.49049731  0.26060006  0.39330898     1.51700
Co23       Co  0.40068873  0.23965071  0.48074047     1.51600
Co24       Co  0.53910043  0.26782690  0.01226247     1.51500
O25         O  0.47931485  0.24753219  0.97443942    -1.42800
C26         C  0.56702240  0.28352286  0.11101193     1.08700
C27         C  0.37715093  0.27383845  0.39553421     1.08800
C28         C  0.40434144  0.28394452  0.06579004     1.08800
C29         C  0.52894267  0.30910972  0.42813769     1.08700
O30         O  0.55554570  0.47642808  0.13285434    -0.80900
O31         O  0.59147316  0.02811188  0.44007264    -0.80900
O32         O  0.57964966  0.46556260  0.43989904    -0.80900
O33         O  0.55544311  0.04240093  0.06436526    -0.80900
O34         O  0.54933967  0.48667436  0.36622550    -0.81000
O35         O  0.55097798  0.01766374  0.13829899    -0.80900
O36         O  0.52938345  0.05782187  0.46151592    -0.80900
O37         O  0.58530929  0.46487475  0.05146862    -0.80900
C38         C  0.59024500  0.46370623  0.10343557     1.08800
C39         C  0.57673226  0.05191042  0.44110310     1.08700
C40         C  0.58278535  0.47050522  0.38842491     1.08800
C41         C  0.57050818  0.03770894  0.11399426     1.08700
O42         O  0.45044613  0.02485047  0.09102861    -0.80900
O43         O  0.44545209  0.48466035  0.41133014    -0.81000
O44         O  0.46538902  0.44972656  0.05725858    -0.80900
O45         O  0.42347030  0.03159952  0.46399099    -0.80900
O46         O  0.48011247  0.02962660  0.39323539    -0.80900
O47         O  0.44936935  0.48427552  0.10732494    -0.80900
O48         O  0.45088797  0.06363441  0.04972972    -0.80900
O49         O  0.46187561  0.44864825  0.45374282    -0.80900
Co50       Co  0.52398342  0.00402730  0.07209623     1.51500
Co51       Co  0.53723682  0.00231086  0.41435505     1.51700
Co52       Co  0.51827384  0.46320966  0.00016051     1.51600
Co53       Co  0.48622944  0.03422820  0.01485414     1.51500
O54         O  0.50820833  0.99733344  0.99307072    -1.42800
C55         C  0.43063081  0.04846352  0.08609175     1.08700
C56         C  0.43329785  0.46118198  0.42014298     1.08800
C57         C  0.43694175  0.46106672  0.09359419     1.08800
C58         C  0.43283478  0.03567434  0.41381136     1.08700
O59         O  0.89243770  0.26666444  0.06888295    -0.80900
O60         O  0.08801564  0.28417963  0.45189981    -0.80900
O61         O  0.04158019  0.27450258  0.14688181    -0.80900
O62         O  0.97482874  0.28921807  0.44331242    -0.80900
O63         O  0.07933700  0.28678797  0.06716940    -0.81000
O64         O  0.89602940  0.26892855  0.45489209    -0.80900
O65         O  0.05293981  0.26932224  0.37481226    -0.80900
O66         O  0.96668280  0.29010808  0.07351737    -0.80900
C67         C  0.91589465  0.28741343  0.08490520     1.08800
C68         C  0.08454890  0.28518430  0.39948777     1.08700
C69         C  0.07318148  0.28974876  0.11915641     1.08800
C70         C  0.92300232  0.28868599  0.43668683     1.08700
O71         O  0.92596281  0.21302364  0.45591632    -0.80900
O72         O  0.12000849  0.23114302  0.06907136    -0.81000
O73         O  0.94926100  0.23877538  0.13114678    -0.80900
O74         O  0.04579203  0.21973293  0.41816443    -0.80900
O75         O  0.11900374  0.22771183  0.46348029    -0.80900
O76         O  0.93100280  0.21225522  0.06430539    -0.80900
O77         O  0.95173583  0.23905622  0.39015078    -0.80900
O78         O  0.04353104  0.22307502  0.11037882    -0.80900
Co79       Co  0.91712109  0.24020463  0.01164009     1.51500
Co80       Co  0.08887955  0.25579220  0.51353894     1.51700
Co81       Co  0.00986465  0.25692928  0.08678778     1.51600
Co82       Co  0.01374709  0.25459808  0.43539258     1.51500
O83         O  0.00185928  0.24431345  0.01189676    -1.42800
C84         C  0.92633679  0.21840300  0.40617549     1.08700
C85         C  0.09356490  0.21783418  0.10390435     1.08800
C86         C  0.92879515  0.21735229  0.11396240     1.08800
C87         C  0.09458226  0.21376390  0.42918696     1.08700
C88         C  0.27971788  0.12834961  0.29930418     0.44700
H89         H  0.29266158  0.12926348  0.34207464    -0.04300
C90         C  0.24933969  0.12413453  0.20021330     0.44800
H91         H  0.23444478  0.12264247  0.15929238    -0.04300
C92         C  0.31596095  0.14421680  0.25919068    -0.18000
C93         C  0.28518573  0.09989198  0.27771644    -0.17800
C94         C  0.22080550  0.13974658  0.29039961    -0.18100
C95         C  0.30043233  0.14153522  0.20557150    -0.18100
C96         C  0.26875934  0.09711042  0.22387091    -0.17700
C97         C  0.20495156  0.13777502  0.23680313    -0.22700
C98         C  0.73236496  0.13690355  0.20486332     0.44700
H99         H  0.73634257  0.13515666  0.16073784    -0.04300
C100        C  0.72937369  0.14253853  0.30826049     0.44800
H101        H  0.72835678  0.14404360  0.35314257    -0.04300
C102        C  0.69434834  0.16025712  0.22298453    -0.18000
C103        C  0.70924253  0.11190614  0.23372018    -0.17800
C104        C  0.78979552  0.14367180  0.22815513    -0.18100
C105        C  0.69476586  0.16388562  0.27919936    -0.18100
C106        C  0.70595666  0.11578252  0.28951703    -0.17700
C107        C  0.78784054  0.14675196  0.28366047    -0.18000
C108        C  0.25181872  0.38145334  0.19742936     0.44700
H109        H  0.24467024  0.38563782  0.15457644    -0.04300
C110        C  0.25586332  0.37710450  0.30090293     0.44800
H111        H  0.25761461  0.37398793  0.34519315    -0.04300
C112        C  0.29398408  0.35959810  0.21308690    -0.18000
C113        C  0.27491391  0.40605680  0.22504243    -0.17800
C114        C  0.19557319  0.37277613  0.22335511    -0.18100
C115        C  0.29403643  0.35747956  0.26982179    -0.18100
C116        C  0.27547545  0.40496789  0.28146270    -0.17700
C117        C  0.19804697  0.37001137  0.27908686    -0.18000
C118        C  0.73587060  0.37383901  0.31334162     0.44700
H119        H  0.74074700  0.37916001  0.35589561    -0.04300
C120        C  0.73670128  0.36277173  0.21175343     0.44800
H121        H  0.73663789  0.35613859  0.16965393    -0.04300
C122        C  0.68286599  0.35918751  0.29817520    -0.18000
C123        C  0.73047389  0.39840907  0.27604360    -0.17800
C124        C  0.78646582  0.35611950  0.29531340    -0.18100
C125        C  0.68715491  0.35114935  0.24471720    -0.18100
C126        C  0.73339074  0.39307014  0.22065446    -0.17700
C127        C  0.78802667  0.35189782  0.23998082    -0.18000
C128        C  0.10183011  0.31222700  0.14410852    -0.06900
C129        C  0.07358618  0.32956955  0.17960698    -0.18000
C130        C  0.10039219  0.35176651  0.20118135     0.10300
C131        C  0.15753414  0.35595007  0.18952892    -0.06800
C132        C  0.18266871  0.33991585  0.14985017    -0.18000
C133        C  0.15677936  0.31819472  0.12818707     0.10400
S134        S  0.05945525  0.37431187  0.24158631    -0.33000
S135        S  0.19877809  0.29846952  0.08219730    -0.33000
H136        H  0.17540275  0.27417494  0.09589419     0.28400
H137        H  0.09545943  0.39577680  0.23480015     0.28400
H138        H  0.03025124  0.32620721  0.18945524     0.19000
H139        H  0.22476203  0.34282278  0.13749753     0.19000
C140        C  0.16522327  0.34891713  0.30973932    -0.06900
C141        C  0.16756602  0.32263933  0.29136584    -0.18000
C142        C  0.14211962  0.30184718  0.31965030     0.10300
C143        C  0.11394928  0.30661022  0.36900329    -0.06800
C144        C  0.11159286  0.33265098  0.38823690    -0.18000
C145        C  0.13482397  0.35377368  0.35838481     0.10400
S146        S  0.14816143  0.26937909  0.29137863    -0.33000
S147        S  0.11858822  0.38638669  0.38208362    -0.33000
H148        H  0.12791843  0.39943127  0.33245382     0.28400
H149        H  0.15635799  0.25643314  0.34128752     0.28400
H150        H  0.18916183  0.31806043  0.25405090     0.19000
H151        H  0.08854616  0.33680919  0.42531214     0.19000
C152        C  0.18985380  0.15705018  0.33179687    -0.06900
C153        C  0.13140949  0.15678939  0.33187032    -0.18000
C154        C  0.09902834  0.17360017  0.36500655     0.10300
C155        C  0.12476736  0.19206150  0.39933828    -0.06800
C156        C  0.18262638  0.19146620  0.40162094    -0.18000
C157        C  0.21527507  0.17438218  0.36959064     0.10400
S158        S  0.02514909  0.16988141  0.36161532    -0.33000
S159        S  0.28877849  0.17771119  0.37754210    -0.33000
H160        H  0.28825793  0.18949944  0.42904520     0.28400
H161        H  0.01679588  0.17183827  0.41804887     0.28400
H162        H  0.11038257  0.14321942  0.30555988     0.19000
H163        H  0.20298269  0.20549421  0.42735907     0.19000
C164        C  0.12049796  0.19741428  0.13956509    -0.06900
C165        C  0.10069498  0.17133611  0.14065493    -0.18000
C166        C  0.12468172  0.15169656  0.17425453     0.10300
C167        C  0.16808809  0.15820706  0.20979407    -0.06800
C168        C  0.18449820  0.18467935  0.21145503    -0.18000
C169        C  0.16275929  0.20390591  0.17618725     0.10400
S170        S  0.09872513  0.11864647  0.16923025    -0.33000
S171        S  0.19215794  0.23624799  0.17876343    -0.33000
H172        H  0.14088125  0.24941342  0.17469336     0.28400
H173        H  0.11765093  0.10970597  0.21979179     0.28400
H174        H  0.06728933  0.16602770  0.11403229     0.19000
H175        H  0.21630976  0.19022567  0.23932367     0.19000
C176        C  0.83148711  0.15810455  0.19277778    -0.06900
C177        C  0.81016323  0.17479456  0.15240001    -0.18000
C178        C  0.84051540  0.19538996  0.13045656     0.10300
C179        C  0.89526377  0.19934957  0.14696827    -0.06800
C180        C  0.92005197  0.18095832  0.18206995    -0.18000
C181        C  0.88904109  0.15989408  0.20405461     0.10400
S182        S  0.80852931  0.21655437  0.08019901    -0.33000
S183        S  0.92530464  0.13572659  0.24438745    -0.33000
H184        H  0.88439963  0.11624226  0.24107806     0.28400
H185        H  0.76621552  0.19915406  0.06567175     0.28400
H186        H  0.76852827  0.17287975  0.13873856     0.19000
H187        H  0.96393907  0.18233750  0.19045848     0.19000
C188        C  0.82683652  0.16456440  0.31306955    -0.06900
C189        C  0.83442985  0.19083797  0.29511380    -0.18000
C190        C  0.87084056  0.20807481  0.32112607     0.10300
C191        C  0.89566063  0.20014829  0.37002902    -0.06800
C192        C  0.88618891  0.17421420  0.38900631    -0.18000
C193        C  0.85362155  0.15635461  0.36067995     0.10400
S194        S  0.88366984  0.24013835  0.29201733    -0.33000
S195        S  0.84732213  0.12346590  0.38808234    -0.33000
H196        H  0.83831979  0.11079068  0.33853605     0.28400
H197        H  0.86358820  0.23429017  0.24025205     0.28400
H198        H  0.81167377  0.19794800  0.26041570     0.19000
H199        H  0.90493412  0.16754482  0.42637594     0.19000
C200        C  0.82269019  0.34127164  0.33571337    -0.06900
C201        C  0.88011384  0.33917160  0.32590528    -0.18000
C202        C  0.91474080  0.32304092  0.35831926     0.10300
C203        C  0.89258688  0.30943160  0.40424988    -0.06800
C204        C  0.83608945  0.31273738  0.41562802    -0.18000
C205        C  0.80102085  0.32740546  0.38177632     0.10400
S206        S  0.98568370  0.31875636  0.33711248    -0.33000
S207        S  0.72839836  0.32519109  0.39713707    -0.33000
H208        H  0.72968098  0.30308985  0.43182199     0.28400
H209        H  0.98192936  0.33145606  0.28647889     0.28400
H210        H  0.89767275  0.34960480  0.29141318     0.19000
H211        H  0.81855156  0.30257561  0.45052782     0.19000
C212        C  0.88636692  0.30495809  0.12529851    -0.06900
C213        C  0.85561067  0.29278241  0.16735110    -0.18000
C214        C  0.82724799  0.30742753  0.20771762     0.10300
C215        C  0.82852696  0.33523873  0.20693072    -0.06800
C216        C  0.85995260  0.34749064  0.16524258    -0.18000
C217        C  0.88901150  0.33281192  0.12507927     0.10400
S218        S  0.78872340  0.29013657  0.25935460    -0.33000
S219        S  0.92585509  0.35081986  0.07290864    -0.33000
H220        H  0.91572381  0.33280929  0.03117350     0.28400
H221        H  0.78529848  0.26606644  0.23178929     0.28400
H222        H  0.85411852  0.27147388  0.16888805     0.19000
H223        H  0.86008425  0.36881054  0.16269854     0.19000
C224        C  0.61084083  0.07138178  0.41034932    -0.06900
C225        C  0.58374218  0.08690550  0.37176537    -0.18000
C226        C  0.61338971  0.10102956  0.33189000     0.10300
C227        C  0.67210285  0.10016106  0.33014469    -0.06800
C228        C  0.69931638  0.08666492  0.37220933    -0.18000
C229        C  0.66971128  0.07166697  0.41107815     0.10400
S230        S  0.57484908  0.12020393  0.28422932    -0.33000
S231        S  0.71004561  0.05311931  0.45948749    -0.33000
H232        H  0.66752693  0.04856551  0.49776462     0.28400
H233        H  0.52201751  0.11728932  0.30832494     0.28400
H234        H  0.53884026  0.08677036  0.37102547     0.19000
H235        H  0.74422079  0.08681000  0.37325365     0.19000
C236        C  0.61190851  0.05498921  0.14169085    -0.06900
C237        C  0.63250115  0.04786713  0.19314144    -0.18000
C238        C  0.67041611  0.06383141  0.22106513     0.10300
C239        C  0.68429590  0.08921042  0.20059060    -0.06800
C240        C  0.67132862  0.09351750  0.14539955    -0.18000
C241        C  0.63379912  0.07798447  0.11731722     0.10400
S242        S  0.70905716  0.04770287  0.27369855    -0.33000
S243        S  0.61238008  0.09075906  0.05240561    -0.33000
H244        H  0.55587725  0.09176740  0.06760403     0.28400
H245        H  0.75497314  0.06458442  0.26976068     0.28400
H246        H  0.62076525  0.02916843  0.21108865     0.19000
H247        H  0.68468557  0.11068543  0.12355642     0.19000
C248        C  0.29072504  0.07569273  0.18458000    -0.06900
C249        C  0.32409260  0.05465748  0.20299255    -0.18000
C250        C  0.37138565  0.04636112  0.17324883     0.10300
C251        C  0.38182943  0.05669994  0.12042558    -0.06800
C252        C  0.34019175  0.07240239  0.09729029    -0.18000
C253        C  0.29292810  0.08007314  0.12751676     0.10400
S254        S  0.41874175  0.02433421  0.20721792    -0.33000
S255        S  0.23168617  0.08706009  0.08865683    -0.33000
H256        H  0.19450035  0.08155624  0.13173498     0.28400
H257        H  0.46571688  0.03919071  0.19273799     0.28400
H258        H  0.31674557  0.04605510  0.24249139     0.19000
H259        H  0.34237832  0.07702105  0.05434686     0.19000
C260        C  0.39226342  0.05030383  0.37871188    -0.06900
C261        C  0.41427732  0.06404310  0.33391050    -0.18000
C262        C  0.38156472  0.07951969  0.29968084     0.10300
C263        C  0.32310882  0.08166735  0.30928470    -0.06800
C264        C  0.30083082  0.06801859  0.35443838    -0.18000
C265        C  0.33426523  0.05221599  0.38856113     0.10400
S266        S  0.42038231  0.09577605  0.24615795    -0.33000
S267        S  0.30015642  0.03467852  0.44306551    -0.33000
H268        H  0.33163896  0.01144828  0.43601766     0.28400
H269        H  0.37656023  0.10223099  0.21277533     0.28400
H270        H  0.45853832  0.06320222  0.32560187     0.19000
H271        H  0.25674563  0.06963313  0.36317660     0.19000
C272        C  0.63748425  0.44790232  0.12682101    -0.06900
C273        C  0.65323076  0.42393183  0.10237421    -0.18000
C274        C  0.69350588  0.40701007  0.12567703     0.10300
C275        C  0.71674438  0.41345953  0.17671861    -0.06800
C276        C  0.71222289  0.44024612  0.19119124    -0.18000
C277        C  0.67011629  0.45651772  0.17010082     0.10400
S278        S  0.72177117  0.38119094  0.08337374    -0.33000
S279        S  0.65869149  0.48756407  0.20175510    -0.33000
H280        H  0.60563024  0.48077717  0.22146133     0.28400
H281        H  0.67390454  0.37777966  0.05246580     0.28400
H282        H  0.63385006  0.41835476  0.06487047     0.19000
H283        H  0.73648154  0.44768467  0.22423134     0.19000
C284        C  0.62472538  0.45629953  0.35543803    -0.06900
C285        C  0.60472306  0.44225383  0.31174963    -0.18000
C286        C  0.63723916  0.42352115  0.28481856     0.10300
C287        C  0.69390557  0.41983335  0.29937087    -0.06800
C288        C  0.71470299  0.43484168  0.34198649    -0.18000
C289        C  0.68059700  0.45255412  0.37087335     0.10400
S290        S  0.60251109  0.40384442  0.23512986    -0.33000
S291        S  0.71039701  0.46872575  0.42813333    -0.33000
H292        H  0.67506234  0.49069731  0.42610002     0.28400
H293        H  0.55582514  0.42023362  0.22765443     0.28400
H294        H  0.56155221  0.44437856  0.30153022     0.19000
H295        H  0.75723388  0.43183681  0.35444618     0.19000
C296        C  0.38981121  0.44835158  0.38683427    -0.06900
C297        C  0.34389178  0.43546503  0.41003252    -0.18000
C298        C  0.30276583  0.42392205  0.37726766     0.10300
C299        C  0.30785907  0.42395429  0.31925045    -0.06800
C300        C  0.34941531  0.44097704  0.29850530    -0.18000
C301        C  0.39236825  0.45062449  0.33021155     0.10400
S302        S  0.24129524  0.41342741  0.41241449    -0.33000
S303        S  0.45325350  0.46389929  0.29693552    -0.33000
H304        H  0.44348421  0.45332026  0.24549423     0.28400
H305        H  0.20718031  0.42237765  0.37027468     0.28400
H306        H  0.33913732  0.43500200  0.45379206     0.19000
H307        H  0.35027561  0.44765149  0.25762205     0.19000
C308        C  0.31682634  0.42006874  0.19050748    -0.06900
C309        C  0.29904850  0.44088419  0.15704251    -0.18000
C310        C  0.33678526  0.45443265  0.12332341     0.10300
C311        C  0.39321602  0.44668912  0.12258053    -0.06800
C312        C  0.41040792  0.42520993  0.15336539    -0.18000
C313        C  0.37373782  0.41207761  0.18792248     0.10400
S314        S  0.31021927  0.48074610  0.08135802    -0.33000
S315        S  0.40432492  0.38833329  0.23335980    -0.33000
H316        H  0.45013127  0.38157221  0.20004800     0.28400
H317        H  0.35253660  0.47988721  0.04154632     0.28400
H318        H  0.25569630  0.44672176  0.15755917     0.19000
H319        H  0.45405339  0.41982670  0.15308868     0.19000
C320        C  0.31624559  0.33573510  0.30220584    -0.06900
C321        C  0.29909157  0.31006271  0.29060418    -0.18000
C322        C  0.31451242  0.28913632  0.32349575     0.10300
C323        C  0.34653102  0.29422381  0.36903273    -0.06800
C324        C  0.36083473  0.31977171  0.38276458    -0.18000
C325        C  0.34765678  0.34057479  0.34884901     0.10400
S326        S  0.29315383  0.25653315  0.30528833    -0.33000
S327        S  0.37759193  0.37209672  0.36286971    -0.33000
H328        H  0.38901141  0.36734552  0.41787380     0.28400
H329        H  0.29781330  0.24519323  0.35720467     0.28400
H330        H  0.27589838  0.30612254  0.25444902     0.19000
H331        H  0.38698846  0.32307965  0.41739599     0.19000
C332        C  0.37783752  0.30362047  0.10250072    -0.06900
C333        C  0.34981159  0.32528528  0.08061274    -0.18000
C334        C  0.32826673  0.34568675  0.11379956     0.10300
C335        C  0.32940479  0.34310285  0.17199814    -0.06800
C336        C  0.36683348  0.32372722  0.19120041    -0.18000
C337        C  0.38782488  0.30336018  0.15846360     0.10400
S338        S  0.30991897  0.37589995  0.07891848    -0.33000
S339        S  0.42710093  0.27701706  0.18940514    -0.33000
H340        H  0.40992165  0.28196692  0.24315911     0.28400
H341        H  0.32586957  0.36864053  0.02594834     0.28400
H342        H  0.34695631  0.32667571  0.03691294     0.19000
H343        H  0.38209701  0.32448998  0.23169034     0.19000
C344        C  0.54967779  0.33209714  0.39749546    -0.06900
C345        C  0.58873440  0.34818593  0.42188288    -0.18000
C346        C  0.62669891  0.36259096  0.39034733     0.10300
C347        C  0.62983445  0.35782107  0.33345886    -0.06800
C348        C  0.57985419  0.34928739  0.31062696    -0.18000
C349        C  0.54110159  0.33505325  0.34128092     0.10400
S350        S  0.66564455  0.38732968  0.42494743    -0.33000
S351        S  0.48606799  0.31847075  0.30636024    -0.33000
H352        H  0.50307124  0.32460287  0.25296614     0.28400
H353        H  0.62718297  0.39093149  0.46782482     0.28400
H354        H  0.59185314  0.34830386  0.46560177     0.19000
H355        H  0.57202865  0.35205531  0.26828542     0.19000
C356        C  0.58719491  0.30124036  0.15143483    -0.06900
C357        C  0.60697135  0.29135356  0.20031439    -0.18000
C358        C  0.63743103  0.30756299  0.23401596     0.10300
C359        C  0.64898096  0.33366002  0.21680550    -0.06800
C360        C  0.62449235  0.34382377  0.17018483    -0.18000
C361        C  0.59192537  0.32813619  0.13829563     0.10400
S362        S  0.65925508  0.29460914  0.29836135    -0.33000
S363        S  0.55591993  0.34267227  0.08140484    -0.33000
H364        H  0.57139997  0.36893840  0.09034170     0.28400
H365        H  0.65634312  0.26790842  0.28402427     0.28400
H366        H  0.60030459  0.27085923  0.21089228     0.19000
H367        H  0.63095061  0.36412695  0.15878451     0.19000
C368        C  0.63534689  0.22891901  0.37984120    -0.06900
C369        C  0.60881620  0.22229039  0.33144024    -0.18000
C370        C  0.62400798  0.20023939  0.30150106     0.10300
C371        C  0.67433205  0.18727310  0.31170009    -0.06800
C372        C  0.70481175  0.19579526  0.35730865    -0.18000
C373        C  0.68506508  0.21574377  0.39224973     0.10400
S374        S  0.57199411  0.18588622  0.26066104    -0.33000
S375        S  0.72616477  0.22411401  0.44988634    -0.33000
H376        H  0.71077885  0.25090376  0.45028179     0.28400
H377        H  0.53102768  0.20562849  0.26578185     0.28400
H378        H  0.57239921  0.23309814  0.31899714     0.19000
H379        H  0.74377624  0.18661816  0.36739957     0.19000
C380        C  0.62951009  0.20644111  0.08754584    -0.06900
C381        C  0.61337063  0.18047113  0.09677166    -0.18000
C382        C  0.62941176  0.16651663  0.14316149     0.10300
C383        C  0.66789782  0.17729314  0.17964075    -0.06800
C384        C  0.68613810  0.20317130  0.16955076    -0.18000
C385        C  0.66681232  0.21790855  0.12441208     0.10400
S386        S  0.59049970  0.13767527  0.16059002    -0.33000
S387        S  0.68887083  0.25150304  0.11512446    -0.33000
H388        H  0.71371024  0.25408711  0.16599656     0.28400
H389        H  0.55668575  0.13669599  0.11472631     0.28400
H390        H  0.58256732  0.17218773  0.07043253     0.19000
H391        H  0.71605429  0.21163892  0.19657502     0.19000
C392        C  0.36231162  0.16038995  0.27979560    -0.06900
C393        C  0.39624581  0.14923009  0.32011616    -0.18000
C394        C  0.43192652  0.16465386  0.35004674     0.10300
C395        C  0.43447118  0.19164186  0.33877157    -0.06800
C396        C  0.40656363  0.20232510  0.29453139    -0.18000
C397        C  0.36850134  0.18741825  0.26646320     0.10400
S398        S  0.46844058  0.14962294  0.40565808    -0.33000
S399        S  0.32198408  0.20498750  0.22241040    -0.33000
H400        H  0.35794175  0.22595433  0.21015767     0.28400
H401        H  0.50949448  0.16907636  0.40874235     0.28400
H402        H  0.39130478  0.12895439  0.33227457     0.19000
H403        H  0.40832634  0.22339474  0.28723759     0.19000
C404        C  0.33217575  0.15259759  0.15833972    -0.06900
C405        C  0.38984901  0.15476410  0.16410474    -0.18000
C406        C  0.41845452  0.17542402  0.13985218     0.10300
C407        C  0.39137645  0.19142542  0.10286871    -0.06800
C408        C  0.33736631  0.18561256  0.08736717    -0.18000
C409        C  0.30693469  0.16625686  0.11448537     0.10400
S410        S  0.48748616  0.18283613  0.15941218    -0.33000
S411        S  0.23745677  0.16058390  0.09149814    -0.33000
H412        H  0.23954863  0.17611253  0.04407029     0.28400
H413        H  0.49005112  0.16338991  0.20008514     0.28400
H414        H  0.41109792  0.14288477  0.19348775     0.19000
H415        H  0.31848442  0.19708352  0.05524496     0.19000
O416        O  0.44289860  0.23065319  0.59061223    -0.80900
O417        O  0.56702816  0.26342493  0.89323977    -0.80900
O418        O  0.40422980  0.21748869  0.91808327    -0.80900
O419        O  0.60606441  0.24088986  0.52058933    -0.80900
O420        O  0.48687613  0.22430109  0.87663999    -0.81000
O421        O  0.54157294  0.22005434  0.56098079    -0.80900
O422        O  0.60035954  0.24805733  0.96839427    -0.80900
O423        O  0.42024583  0.20814627  0.51928259    -0.80900
C424        C  0.42103361  0.21049102  0.56942697     1.08800
C425        C  0.60022596  0.24831775  0.91644800     1.08700
C426        C  0.44269582  0.21119541  0.88355051     1.08800
C427        C  0.59245471  0.22231281  0.55335060     1.08700
O428        O  0.52910169  0.26605346  0.61937782    -0.80900
O429        O  0.40755325  0.26197689  0.87380243    -0.81000
O430        O  0.38057072  0.26182456  0.54741003    -0.80900
O431        O  0.55757818  0.29812301  0.96338705    -0.80900
O432        O  0.48074741  0.29869262  0.91727724    -0.80900
O433        O  0.45492408  0.28574803  0.54887514    -0.80900
O434        O  0.58529872  0.28608291  0.56155310    -0.80900
O435        O  0.37056175  0.27248458  0.94996355    -0.80900
Co436      Co  0.49968942  0.25308676  0.55064078     1.51500
Co437      Co  0.48582345  0.26131652  0.89619465     1.51700
Co438      Co  0.39771872  0.24065610  0.98487316     1.51600
Co439      Co  0.54138225  0.26729656  0.51012547     1.51500
O440        O  0.48253802  0.24667450  0.47158124    -1.42800
C441        C  0.56647480  0.28319058  0.60967105     1.08700
C442        C  0.37194085  0.27447058  0.90006669     1.08800
C443        C  0.40490441  0.28266144  0.56220322     1.08800
C444        C  0.52504591  0.30968316  0.93067702     1.08700
O445        O  0.55298716  0.47644166  0.63552268    -0.80900
O446        O  0.58964788  0.02828944  0.94056599    -0.80900
O447        O  0.57649626  0.46597826  0.93783848    -0.80900
O448        O  0.55615568  0.04206512  0.56412629    -0.80900
O449        O  0.54699663  0.48754105  0.86434052    -0.81000
O450        O  0.55081988  0.01727346  0.63787463    -0.80900
O451        O  0.52766689  0.05806725  0.96205320    -0.80900
O452        O  0.58640551  0.46642327  0.55443202    -0.80900
C453        C  0.58903765  0.46429980  0.60646364     1.08800
C454        C  0.57484784  0.05209492  0.94146118     1.08700
C455        C  0.57988303  0.47110716  0.88652585     1.08800
C456        C  0.57029113  0.03745249  0.61403556     1.08700
O457        O  0.45055259  0.02424963  0.58978716    -0.80900
O458        O  0.44304241  0.48548188  0.90904813    -0.81000
O459        O  0.46798621  0.44961877  0.55920754    -0.80900
O460        O  0.42182209  0.03213548  0.96497931    -0.80900
O461        O  0.47831697  0.02980853  0.89414061    -0.80900
O462        O  0.44729435  0.48453166  0.60652451    -0.80900
O463        O  0.45168828  0.06310244  0.54886801    -0.80900
O464        O  0.45848313  0.44940469  0.95163781    -0.80900
Co465      Co  0.52470150  0.00363227  0.57127659     1.51500
Co466      Co  0.53533596  0.00246314  0.91545045     1.51700
Co467      Co  0.52089574  0.46314314  0.50219095     1.51600
Co468      Co  0.48756215  0.03381267  0.51402839     1.51500
O469        O  0.50980633  0.99693999  0.49200123    -1.42800
C470        C  0.43085204  0.04792324  0.58490702     1.08700
C471        C  0.43048816  0.46198269  0.91760624     1.08800
C472        C  0.43698680  0.46099243  0.59350907     1.08800
C473        C  0.43109143  0.03600793  0.91466940     1.08700
O474        O  0.89022731  0.26710873  0.56736356    -0.80900
O475        O  0.08631655  0.28499816  0.95059580    -0.80900
O476        O  0.03902693  0.27397206  0.64731251    -0.80900
O477        O  0.97349698  0.28894980  0.94316875    -0.80900
O478        O  0.07596116  0.28621932  0.56729878    -0.81000
O479        O  0.89536226  0.26832002  0.95652411    -0.80900
O480        O  0.05141472  0.26916566  0.87424605    -0.80900
O481        O  0.96485818  0.29007433  0.57361803    -0.80900
C482        C  0.91388361  0.28762311  0.58440861     1.08800
C483        C  0.08257440  0.28552365  0.89815668     1.08700
C484        C  0.07077532  0.28903638  0.61927295     1.08800
C485        C  0.92157067  0.28811037  0.93732675     1.08700
O486        O  0.92675914  0.21247875  0.95736493    -0.80900
O487        O  0.11712744  0.23073281  0.57206064    -0.81000
O488        O  0.94579878  0.23879967  0.63047186    -0.80900
O489        O  0.04463643  0.21952450  0.91844577    -0.80900
O490        O  0.11906336  0.22861974  0.96078959    -0.80900
O491        O  0.92709436  0.21253069  0.56322966    -0.80900
O492        O  0.95039219  0.23865791  0.89117516    -0.80900
O493        O  0.03953630  0.22248004  0.61086132    -0.80900
Co494      Co  0.91562290  0.24064698  0.51023322     1.51500
Co495      Co  0.09002615  0.25648708  0.01193848     1.51700
Co496      Co  0.00722844  0.25660083  0.58693195     1.51600
Co497      Co  0.01289591  0.25445856  0.93527895     1.51500
O498        O  0.00052697  0.24409932  0.51168105    -1.42800
C499        C  0.92546656  0.21797692  0.90773250     1.08700
C500        C  0.08979974  0.21740238  0.60617363     1.08800
C501        C  0.92506165  0.21750863  0.61301756     1.08800
C502        C  0.09383769  0.21396869  0.92833089     1.08700
C503        C  0.27794823  0.12792200  0.79919284     0.44700
H504        H  0.29105571  0.12848631  0.84192959    -0.04300
C505        C  0.24717554  0.12445618  0.70010666     0.44800
H506        H  0.23192858  0.12340501  0.65924026    -0.04300
C507        C  0.31359336  0.14440612  0.75950832    -0.18000
C508        C  0.28399498  0.09969132  0.77654356    -0.17800
C509        C  0.21866816  0.13897797  0.79119869    -0.18100
C510        C  0.29777107  0.14218099  0.70589150    -0.18100
C511        C  0.26773382  0.09730322  0.72248892    -0.17700
C512        C  0.20249579  0.13738174  0.73766892    -0.22700
C513        C  0.73038477  0.13713341  0.70659137     0.44700
H514        H  0.73463721  0.13501677  0.66260940    -0.04300
C515        C  0.72670493  0.14337623  0.80974735     0.44800
H516        H  0.72544143  0.14510493  0.85459908    -0.04300
C517        C  0.69287844  0.16079860  0.72401855    -0.18000
C518        C  0.70662003  0.11236241  0.73566419    -0.17800
C519        C  0.78773089  0.14386171  0.72992795    -0.18100
C520        C  0.69264483  0.16477958  0.78006353    -0.18100
C521        C  0.70314480  0.11659240  0.79130374    -0.17700
C522        C  0.78546143  0.14707462  0.78542879    -0.18000
C523        C  0.25192324  0.37978218  0.69410354     0.44700
H524        H  0.24541487  0.38369569  0.65101297    -0.04300
C525        C  0.25456012  0.37603099  0.79769033     0.44800
H526        H  0.25561742  0.37310024  0.84202945    -0.04300
C527        C  0.29302553  0.35761883  0.71076136    -0.18000
C528        C  0.27527371  0.40439006  0.72149113    -0.17800
C529        C  0.19509105  0.37184361  0.71957650    -0.18100
C530        C  0.29241114  0.35589872  0.76755718    -0.18100
C531        C  0.27536977  0.40365614  0.77791874    -0.17700
C532        C  0.19674728  0.36932015  0.77534939    -0.18000
C533        C  0.73303733  0.37286715  0.81485801     0.44700
H534        H  0.73844625  0.37801073  0.85738743    -0.04300
C535        C  0.73346225  0.36230633  0.71305767     0.44800
H536        H  0.73325900  0.35589013  0.67081430    -0.04300
C537        C  0.67996414  0.35830107  0.79974217    -0.18000
C538        C  0.72722351  0.39758792  0.77813784    -0.17800
C539        C  0.78354810  0.35524513  0.79621233    -0.18100
C540        C  0.68392369  0.35052252  0.74604883    -0.18100
C541        C  0.73022967  0.39255712  0.72267752    -0.17700
C542        C  0.78504355  0.35136952  0.74077306    -0.18000
C543        C  0.10009596  0.31137956  0.64336571    -0.06900
C544        C  0.07217266  0.32931898  0.67768242    -0.18000
C545        C  0.09942289  0.35170076  0.69757683     0.10300
C546        C  0.15669590  0.35530955  0.68583681    -0.06800
C547        C  0.18142695  0.33881212  0.64674472    -0.18000
C548        C  0.15492255  0.31699617  0.62637416     0.10400
S549        S  0.05888989  0.37527393  0.73574169    -0.33000
S550        S  0.19576057  0.29683589  0.58020090    -0.33000
H551        H  0.17236982  0.27275240  0.59527868     0.28400
H552        H  0.09562467  0.39633241  0.72718722     0.28400
H553        H  0.02872966  0.32633734  0.68764659     0.19000
H554        H  0.22358399  0.34143032  0.63391709     0.19000
C555        C  0.16278433  0.34861586  0.80593498    -0.06900
C556        C  0.16509182  0.32218579  0.78851032    -0.18000
C557        C  0.13963557  0.30164639  0.81759380     0.10300
C558        C  0.11116059  0.30685879  0.86657934    -0.06800
C559        C  0.10789970  0.33315201  0.88429593    -0.18000
C560        C  0.13140454  0.35399240  0.85373246     0.10400
S561        S  0.14616295  0.26887466  0.79098665    -0.33000
S562        S  0.11460455  0.38689957  0.87542377    -0.33000
H563        H  0.12619600  0.39951222  0.82575848     0.28400
H564        H  0.15504338  0.25659559  0.84148210     0.28400
H565        H  0.18692674  0.31728697  0.75148069     0.19000
H566        H  0.08426607  0.33767395  0.92083390     0.19000
C567        C  0.18794806  0.15609920  0.83310320    -0.06900
C568        C  0.12947445  0.15566386  0.83399597    -0.18000
C569        C  0.09738840  0.17276806  0.86681990     0.10300
C570        C  0.12350742  0.19187421  0.89935118    -0.06800
C571        C  0.18130626  0.19129456  0.90119838    -0.18000
C572        C  0.21360069  0.17367409  0.87025374     0.10400
S573        S  0.02353032  0.16854648  0.86561365    -0.33000
S574        S  0.28695710  0.17635627  0.87955983    -0.33000
H575        H  0.28615546  0.18893524  0.93025608     0.28400
H576        H  0.01653505  0.17150414  0.92201122     0.28400
H577        H  0.10825011  0.14176395  0.80858544     0.19000
H578        H  0.20192418  0.20562712  0.92600859     0.19000
C579        C  0.11598469  0.19714926  0.64281665    -0.06900
C580        C  0.09542765  0.17120496  0.64496714    -0.18000
C581        C  0.12004061  0.15151858  0.67803093     0.10300
C582        C  0.16479276  0.15788410  0.71202626    -0.06800
C583        C  0.18144383  0.18432080  0.71338421    -0.18000
C584        C  0.15918713  0.20356441  0.67847421     0.10400
S585        S  0.09322307  0.11858294  0.67431792    -0.33000
S586        S  0.18977599  0.23567860  0.67959472    -0.33000
H587        H  0.13890729  0.24920629  0.67558848     0.28400
H588        H  0.11318747  0.10985025  0.72464175     0.28400
H589        H  0.06119711  0.16597956  0.61928532     0.19000
H590        H  0.21419725  0.18974946  0.74029557     0.19000
C591        C  0.82922887  0.15837451  0.69430382    -0.06900
C592        C  0.80778219  0.17438953  0.65279304    -0.18000
C593        C  0.83762214  0.19488000  0.62986305     0.10300
C594        C  0.89212119  0.19936923  0.64630367    -0.06800
C595        C  0.91725707  0.18157988  0.68246810    -0.18000
C596        C  0.88671454  0.16060222  0.70549457     0.10400
S597        S  0.80519944  0.21531176  0.57863608    -0.33000
S598        S  0.92373422  0.13684302  0.74617277    -0.33000
H599        H  0.88322295  0.11714205  0.74357693     0.28400
H600        H  0.76387344  0.19733645  0.56434350     0.28400
H601        H  0.76646992  0.17203558  0.63867449     0.19000
H602        H  0.96108835  0.18330675  0.69081780     0.19000
C603        C  0.82462271  0.16462598  0.81494856    -0.06900
C604        C  0.83135434  0.19103890  0.79783343    -0.18000
C605        C  0.86703435  0.20833349  0.82449643     0.10300
C606        C  0.89355624  0.19995143  0.87220827    -0.06800
C607        C  0.88493108  0.17381949  0.89040809    -0.18000
C608        C  0.85199679  0.15611148  0.86203473     0.10400
S609        S  0.87549903  0.24130379  0.79846304    -0.33000
S610        S  0.84610057  0.12302215  0.88858548    -0.33000
H611        H  0.83530928  0.11066412  0.83907655     0.28400
H612        H  0.85966681  0.23538445  0.74525729     0.28400
H613        H  0.80799899  0.19829107  0.76360908     0.19000
H614        H  0.90453213  0.16691196  0.92716962     0.19000
C615        C  0.81982821  0.34013595  0.83617579    -0.06900
C616        C  0.87712361  0.33798092  0.82594294    -0.18000
C617        C  0.91195933  0.32187504  0.85809075     0.10300
C618        C  0.89034623  0.30850038  0.90457784    -0.06800
C619        C  0.83381240  0.31169577  0.91620434    -0.18000
C620        C  0.79846114  0.32641704  0.88258651     0.10400
S621        S  0.98226649  0.31707764  0.83532376    -0.33000
S622        S  0.72573696  0.32366261  0.89737321    -0.33000
H623        H  0.72886432  0.31308317  0.95009532     0.28400
H624        H  0.97761040  0.32923959  0.78417958     0.28400
H625        H  0.89447059  0.34837147  0.79130263     0.19000
H626        H  0.81641539  0.30111693  0.95062020     0.19000
C627        C  0.88416653  0.30504659  0.62520951    -0.06900
C628        C  0.85017308  0.29272513  0.66467414    -0.18000
C629        C  0.82183996  0.30708251  0.70554800     0.10300
C630        C  0.82553548  0.33478209  0.70742954    -0.06800
C631        C  0.86030682  0.34720616  0.66861903    -0.18000
C632        C  0.89018126  0.33276057  0.62853212     0.10400
S633        S  0.78084079  0.28970610  0.75517871    -0.33000
S634        S  0.93330547  0.35099142  0.58158222    -0.33000
H635        H  0.92354994  0.33478555  0.53673783     0.28400
H636        H  0.78208115  0.26506940  0.72962279     0.28400
H637        H  0.84643425  0.27148553  0.66401965     0.19000
H638        H  0.86295396  0.36850502  0.66852789     0.19000
C639        C  0.60896379  0.07162771  0.91105939    -0.06900
C640        C  0.58163061  0.08854958  0.87503112    -0.18000
C641        C  0.61106831  0.10310648  0.83564955     0.10300
C642        C  0.66957350  0.10109799  0.83196718    -0.06800
C643        C  0.69720378  0.08646480  0.87204885    -0.18000
C644        C  0.66782204  0.07101569  0.91012790     0.10400
S645        S  0.57300042  0.12454947  0.79147098    -0.33000
S646        S  0.70829090  0.05048463  0.95495848    -0.33000
H647        H  0.66801451  0.04786742  0.99627752     0.28400
H648        H  0.51960728  0.11963346  0.81271173     0.28400
H649        H  0.53670972  0.08928738  0.87591505     0.19000
H650        H  0.74214652  0.08589184  0.87170358     0.19000
C651        C  0.61056328  0.05499512  0.64257825    -0.06900
C652        C  0.63044343  0.04796380  0.69431934    -0.18000
C653        C  0.66750704  0.06412768  0.72291769     0.10300
C654        C  0.68154041  0.08956459  0.70261179    -0.06800
C655        C  0.66913895  0.09377519  0.64722473    -0.18000
C656        C  0.63217414  0.07814793  0.61867792     0.10400
S657        S  0.70572843  0.04789578  0.77560349    -0.33000
S658        S  0.61121382  0.09094747  0.55362939    -0.33000
H659        H  0.55450717  0.09149242  0.56811412     0.28400
H660        H  0.75172338  0.06473244  0.77185319     0.28400
H661        H  0.61914147  0.02908738  0.71178678     0.19000
H662        H  0.68249293  0.11094314  0.62541184     0.19000
C663        C  0.29061047  0.07632845  0.68246016    -0.06900
C664        C  0.32263611  0.05475982  0.70072591    -0.18000
C665        C  0.36960993  0.04580915  0.67117055     0.10300
C666        C  0.38164074  0.05635774  0.61881745    -0.06800
C667        C  0.34156824  0.07301483  0.59579809    -0.18000
C668        C  0.29433789  0.08123424  0.62554129     0.10400
S669        S  0.41497512  0.02286692  0.70513714    -0.33000
S670        S  0.23474427  0.08965001  0.58539743    -0.33000
H671        H  0.19584113  0.08343214  0.62659235     0.28400
H672        H  0.46305642  0.03724055  0.69220753     0.28400
H673        H  0.31442817  0.04612816  0.74005567     0.19000
H674        H  0.34489523  0.07805975  0.55310718     0.19000
C675        C  0.39051439  0.05047158  0.87910739    -0.06900
C676        C  0.41255133  0.06362347  0.83349910    -0.18000
C677        C  0.38003111  0.07900599  0.79883430     0.10300
C678        C  0.32159322  0.08130663  0.80821769    -0.06800
C679        C  0.29928807  0.06827137  0.85417354    -0.18000
C680        C  0.33260660  0.05286367  0.88919616     0.10400
S681        S  0.41913643  0.09534763  0.74560398    -0.33000
S682        S  0.29852320  0.03676289  0.94559541    -0.33000
H683        H  0.32867800  0.01305991  0.93997443     0.28400
H684        H  0.37529744  0.10276661  0.71308056     0.28400
H685        H  0.45680004  0.06260826  0.82516314     0.19000
H686        H  0.25530463  0.07025578  0.86312626     0.19000
C687        C  0.63536724  0.44822938  0.63024255    -0.06900
C688        C  0.65146283  0.42457460  0.60482014    -0.18000
C689        C  0.69107582  0.40732046  0.62797134     0.10300
C690        C  0.71383874  0.41330878  0.67940616    -0.06800
C691        C  0.70909899  0.43995094  0.69503003    -0.18000
C692        C  0.66645465  0.45631840  0.67493260     0.10400
S693        S  0.71915235  0.38163833  0.58521435    -0.33000
S694        S  0.65016341  0.48653272  0.70901636    -0.33000
H695        H  0.68490261  0.48254521  0.75369969     0.28400
H696        H  0.67227047  0.37921661  0.55250554     0.28400
H697        H  0.63263568  0.41945925  0.56675294     0.19000
H698        H  0.73377643  0.44691587  0.72813633     0.19000
C699        C  0.62154625  0.45662797  0.85403658    -0.06900
C700        C  0.60135689  0.44191452  0.81145021    -0.18000
C701        C  0.63361367  0.42256377  0.78619344     0.10300
C702        C  0.69008308  0.41878291  0.80153112    -0.06800
C703        C  0.71087513  0.43428641  0.84334164    -0.18000
C704        C  0.67707610  0.45277971  0.87030866     0.10400
S705        S  0.59900704  0.40269430  0.73681381    -0.33000
S706        S  0.70665176  0.47015800  0.92609376    -0.33000
H707        H  0.67439678  0.49289344  0.91820510     0.28400
H708        H  0.55483056  0.42015187  0.72584941     0.28400
H709        H  0.55829117  0.44408695  0.80080097     0.19000
H710        H  0.75328119  0.43134411  0.85622523     0.19000
C711        C  0.38727839  0.44898452  0.88374591    -0.06900
C712        C  0.34177906  0.43557439  0.90657954    -0.18000
C713        C  0.30160272  0.42333715  0.87364005     0.10300
C714        C  0.30738553  0.42295213  0.81564746    -0.06800
C715        C  0.34884007  0.44010893  0.79494079    -0.18000
C716        C  0.39052231  0.45080091  0.82703300     0.10400
S717        S  0.24024583  0.41241443  0.90851097    -0.33000
S718        S  0.45088679  0.46482798  0.79417396    -0.33000
H719        H  0.44254327  0.45389605  0.74276068     0.28400
H720        H  0.20626901  0.42081576  0.86583795     0.28400
H721        H  0.33655422  0.43523243  0.95029360     0.19000
H722        H  0.35044206  0.44625186  0.75376613     0.19000
C723        C  0.31686131  0.41847830  0.68706003    -0.06900
C724        C  0.29892545  0.43954581  0.65437763    -0.18000
C725        C  0.33671084  0.45361161  0.62172487     0.10300
C726        C  0.39329131  0.44617567  0.62143375    -0.06800
C727        C  0.41057418  0.42434243  0.65114605    -0.18000
C728        C  0.37379704  0.41060499  0.68448712     0.10400
S729        S  0.31017722  0.48018362  0.58046482    -0.33000
S730        S  0.40397215  0.38602671  0.72831344    -0.33000
H731        H  0.45121822  0.38049367  0.69598429     0.28400
H732        H  0.35183766  0.47891567  0.54001534     0.28400
H733        H  0.25547715  0.44521793  0.65482032     0.19000
H734        H  0.45428950  0.41910316  0.65097227     0.19000
C735        C  0.31398642  0.33452408  0.80137254    -0.06900
C736        C  0.29540743  0.30881831  0.79224907    -0.18000
C737        C  0.30913642  0.28855253  0.82757191     0.10300
C738        C  0.34039763  0.29440888  0.87321857    -0.06800
C739        C  0.35560455  0.32009791  0.88467843    -0.18000
C740        C  0.34489733  0.34011052  0.84798346     0.10400
S741        S  0.28767185  0.25559873  0.81204097    -0.33000
S742        S  0.37715582  0.37149814  0.85839481    -0.33000
H743        H  0.39562830  0.36691470  0.91147819     0.28400
H744        H  0.28930322  0.24588168  0.86554548     0.28400
H745        H  0.27270745  0.30426314  0.75612093     0.19000
H746        H  0.38125023  0.32389349  0.91944592     0.19000
C747        C  0.37761421  0.30183486  0.59947102    -0.06900
C748        C  0.35169051  0.32419339  0.57819674    -0.18000
C749        C  0.32920640  0.34409101  0.61202224     0.10300
C750        C  0.32810851  0.34067903  0.67010972    -0.06800
C751        C  0.36286677  0.32018893  0.68939829    -0.18000
C752        C  0.38464837  0.30028494  0.65584279     0.10400
S753        S  0.31467678  0.37497882  0.57814430    -0.33000
S754        S  0.42248133  0.27323928  0.68606358    -0.33000
H755        H  0.40562629  0.27789009  0.74006492     0.28400
H756        H  0.30578510  0.36473611  0.52612392     0.28400
H757        H  0.35191237  0.32670930  0.53454417     0.19000
H758        H  0.37633001  0.31989902  0.73046558     0.19000
C759        C  0.54564136  0.33258219  0.89985718    -0.06900
C760        C  0.58538774  0.34837710  0.92388831    -0.18000
C761        C  0.62418421  0.36212436  0.89216100     0.10300
C762        C  0.62705284  0.35711471  0.83527785    -0.06800
C763        C  0.57672331  0.34883856  0.81261956    -0.18000
C764        C  0.53716973  0.33528721  0.84362084     0.10400
S765        S  0.66451846  0.38635186  0.92681373    -0.33000
S766        S  0.48128434  0.31904335  0.80918465    -0.33000
H767        H  0.49747938  0.32536254  0.75565500     0.28400
H768        H  0.62621125  0.39057449  0.96958557     0.28400
H769        H  0.58857950  0.34860537  0.96758588     0.19000
H770        H  0.56903341  0.35130285  0.77020645     0.19000
C771        C  0.58534228  0.30095491  0.65066590    -0.06900
C772        C  0.60366363  0.29104566  0.70007790    -0.18000
C773        C  0.63323281  0.30720098  0.73463384     0.10300
C774        C  0.64538817  0.33329390  0.71779479    -0.06800
C775        C  0.62176954  0.34355761  0.67078594    -0.18000
C776        C  0.59016285  0.32788765  0.63790026     0.10400
S777        S  0.65335743  0.29408429  0.79939595    -0.33000
S778        S  0.55583525  0.34245450  0.58004090    -0.33000
H779        H  0.56983015  0.36879487  0.59034081     0.28400
H780        H  0.65269689  0.26750032  0.78385666     0.28400
H781        H  0.59673322  0.27054058  0.71040755     0.19000
H782        H  0.62856978  0.36385955  0.65957485     0.19000
C783        C  0.63163367  0.22975710  0.88060460    -0.06900
C784        C  0.60502780  0.22300062  0.83241649    -0.18000
C785        C  0.62175938  0.20168278  0.80100843     0.10300
C786        C  0.67175109  0.18838909  0.81197457    -0.06800
C787        C  0.70193305  0.19703133  0.85770350    -0.18000
C788        C  0.68209754  0.21710234  0.89238325     0.10400
S789        S  0.57098711  0.18910741  0.75660933    -0.33000
S790        S  0.72406803  0.22640497  0.94882055    -0.33000
H791        H  0.70724756  0.25301992  0.94873893     0.28400
H792        H  0.54619409  0.21352017  0.74362367     0.28400
H793        H  0.56738837  0.23314418  0.82101688     0.19000
H794        H  0.74098213  0.18794657  0.86787259     0.19000
C795        C  0.63068645  0.20611164  0.58691197    -0.06900
C796        C  0.61431687  0.18016488  0.59658432    -0.18000
C797        C  0.62942243  0.16659790  0.64374434     0.10300
C798        C  0.66747337  0.17762698  0.68012201    -0.06800
C799        C  0.68599593  0.20341526  0.66972076    -0.18000
C800        C  0.66726803  0.21787801  0.62405287     0.10400
S801        S  0.58956193  0.13821713  0.66292750    -0.33000
S802        S  0.68866523  0.25158480  0.61467915    -0.33000
H803        H  0.71446226  0.25412677  0.66500262     0.28400
H804        H  0.55785785  0.13626465  0.61579031     0.28400
H805        H  0.58377663  0.17170835  0.57018788     0.19000
H806        H  0.71543346  0.21203617  0.69703873     0.19000
C807        C  0.35969987  0.16067400  0.78054139    -0.06900
C808        C  0.39338620  0.14951407  0.82110684    -0.18000
C809        C  0.42696251  0.16514793  0.85300189     0.10300
C810        C  0.42888712  0.19224974  0.84237362    -0.06800
C811        C  0.40200354  0.20289318  0.79748559    -0.18000
C812        C  0.36529361  0.18783682  0.76802774     0.10400
S813        S  0.46106130  0.15009561  0.91009108    -0.33000
S814        S  0.31936773  0.20540125  0.72338534    -0.33000
H815        H  0.35553568  0.22629655  0.71167328     0.28400
H816        H  0.50005700  0.17018024  0.91727373     0.28400
H817        H  0.38925965  0.12903896  0.83220576     0.19000
H818        H  0.40338292  0.22399776  0.79053730     0.19000
C819        C  0.32946944  0.15359982  0.65888953    -0.06900
C820        C  0.38724095  0.15529021  0.66432260    -0.18000
C821        C  0.41687333  0.17517152  0.63852161     0.10300
C822        C  0.39071105  0.19096956  0.60054024    -0.06800
C823        C  0.33596436  0.18591734  0.58630991    -0.18000
C824        C  0.30442586  0.16743338  0.61508251     0.10400
S825        S  0.48662176  0.18167203  0.65673703    -0.33000
S826        S  0.23377223  0.16298197  0.59433634    -0.33000
H827        H  0.23315224  0.18108004  0.55091895     0.28400
H828        H  0.48758461  0.16379639  0.70047758     0.28400
H829        H  0.40819504  0.14341287  0.69395918     0.19000
H830        H  0.31752913  0.19729974  0.55382532     0.19000
O831        O  0.43564305  0.71817108  0.08685353    -0.80900
O832        O  0.55684946  0.75454760  0.38343087    -0.80900
O833        O  0.39163545  0.71057364  0.40734582    -0.80900
O834        O  0.59300518  0.73059329  0.01322334    -0.80900
O835        O  0.47404609  0.71727426  0.36579428    -0.81000
O836        O  0.53193447  0.70692017  0.05093122    -0.80900
O837        O  0.58811857  0.73961117  0.46030200    -0.80900
O838        O  0.41188996  0.69809911  0.01292004    -0.80900
C839        C  0.41404921  0.69865761  0.06316443     1.08800
C840        C  0.58881185  0.73951893  0.40837939     1.08700
C841        C  0.42964334  0.70436762  0.37245453     1.08800
C842        C  0.58233338  0.71040287  0.04308684     1.08700
O843        O  0.52742043  0.75132744  0.11721826    -0.80900
O844        O  0.39710706  0.75608831  0.36792647    -0.81000
O845        O  0.37210032  0.75082378  0.04843593    -0.80900
O846        O  0.54927798  0.78845195  0.45724949    -0.80900
O847        O  0.47453022  0.79165260  0.40866567    -0.80900
O848        O  0.44835691  0.77372445  0.05216975    -0.80900
O849        O  0.57392395  0.77466535  0.05765004    -0.80900
O850        O  0.36102382  0.76490822  0.44567481    -0.80900
Co851      Co  0.49164222  0.74090634  0.04755815     1.51500
Co852      Co  0.47581840  0.75403046  0.38737921     1.51700
Co853      Co  0.38829180  0.73195643  0.47645445     1.51600
Co854      Co  0.52719166  0.75737109  0.00715667     1.51500
O855        O  0.46841732  0.73777765  0.96802100    -1.42800
C856        C  0.56537381  0.76828174  0.10698993     1.08700
C857        C  0.36283908  0.76849605  0.39606342     1.08800
C858        C  0.39782346  0.77115055  0.06387355     1.08800
C859        C  0.51996687  0.80112078  0.42341442     1.08700
O860        O  0.59100199  0.98122522  0.06597601    -0.80900
O861        O  0.58941385  0.51959092  0.44044180    -0.80900
O862        O  0.53545207  0.94371397  0.43789607    -0.80900
O863        O  0.55824719  0.55217271  0.05156296    -0.80900
O864        O  0.59491550  0.97567444  0.42662371    -0.81000
O865        O  0.54366889  0.52689370  0.12084693    -0.80900
O866        O  0.54180269  0.55554997  0.44538467    -0.80900
O867        O  0.53856015  0.94669533  0.05156654    -0.80900
C868        C  0.58348600  0.95656361  0.07021411     1.08800
C869        C  0.58544024  0.54386609  0.43016768     1.08700
C870        C  0.58208887  0.95204222  0.41978942     1.08800
C871        C  0.57013934  0.54554998  0.09921995     1.08700
O872        O  0.44634357  0.50917916  0.11302597    -0.80900
O873        O  0.48416982  0.97655882  0.37712744    -0.81000
O874        O  0.42439883  0.97190785  0.04958895    -0.80900
O875        O  0.42691809  0.54512431  0.46056551    -0.80900
O876        O  0.47683740  0.52962300  0.39194694    -0.80900
O877        O  0.48290171  0.97617238  0.11422223    -0.80900
O878        O  0.43742446  0.54734721  0.06883920    -0.80900
O879        O  0.42469888  0.96814289  0.44235850    -0.80900
Co880      Co  0.52041941  0.49657742  0.07577476     1.51500
Co881      Co  0.51736911  0.50032602  0.43073724     1.51700
Co882      Co  0.48023289  0.95997782  0.99671614     1.51600
Co883      Co  0.49054402  0.54677893  0.00724137     1.51500
O884        O  0.49150029  0.50543930  0.00437255    -1.42800
C885        C  0.42002518  0.53124928  0.10430689     1.08700
C886        C  0.43651543  0.96813661  0.39264966     1.08800
C887        C  0.43542753  0.96948940  0.09848695     1.08800
C888        C  0.43259323  0.54067942  0.41033873     1.08700
O889        O  0.89720503  0.76972868  0.06364844    -0.80900
O890        O  0.08835352  0.78339646  0.44207352    -0.80900
O891        O  0.04418452  0.77302282  0.13947221    -0.80900
O892        O  0.97498815  0.78982658  0.43973421    -0.80900
O893        O  0.08587276  0.78266659  0.06016124    -0.81000
O894        O  0.89707935  0.76964906  0.45363604    -0.80900
O895        O  0.04781013  0.76984281  0.36646082    -0.80900
O896        O  0.97552621  0.79006313  0.06195153    -0.80900
C897        C  0.92492908  0.79011500  0.07487848     1.08800
C898        C  0.08220182  0.78491457  0.38986088     1.08700
C899        C  0.07749975  0.78713893  0.11145294     1.08800
C900        C  0.92283316  0.78981178  0.43588654     1.08700
O901        O  0.92285810  0.71311898  0.45515695    -0.80900
O902        O  0.11761126  0.72547121  0.05961459    -0.81000
O903        O  0.95016696  0.74060096  0.12573245    -0.80900
O904        O  0.04159657  0.71939665  0.40823904    -0.80900
O905        O  0.11842764  0.72681620  0.44718793    -0.80900
O906        O  0.92443074  0.71296492  0.06389773    -0.80900
O907        O  0.94693576  0.73901835  0.38779588    -0.80900
O908        O  0.04203155  0.72132029  0.10531884    -0.80900
Co909      Co  0.91580951  0.74064350  0.00922662     1.51500
Co910      Co  0.09206311  0.75387766  0.50155787     1.51700
Co911      Co  0.01267250  0.75571944  0.07924107     1.51600
Co912      Co  0.01197759  0.75464621  0.42872455     1.51500
O913        O  0.00163986  0.74216046  0.00562284    -1.42800
C914        C  0.92293819  0.71818346  0.40531030     1.08700
C915        C  0.09027038  0.71357224  0.09604155     1.08800
C916        C  0.92798600  0.71889023  0.11285046     1.08800
C917        C  0.09135087  0.71333379  0.41420022     1.08700
C918        C  0.26715534  0.62039296  0.29070754     0.44700
H919        H  0.28034375  0.62120025  0.33313482    -0.04300
C920        C  0.23699371  0.61458395  0.19199245     0.44800
H921        H  0.22225607  0.61238774  0.15107831    -0.04300
C922        C  0.30395409  0.63540779  0.24997866    -0.18000
C923        C  0.27223960  0.59172370  0.27094390    -0.17800
C924        C  0.20862846  0.63225474  0.28129590    -0.18100
C925        C  0.28897478  0.63169780  0.19653321    -0.18100
C926        C  0.25453990  0.58770306  0.21831167    -0.17700
C927        C  0.19324783  0.62974418  0.22732157    -0.22700
C928        C  0.74023608  0.63519548  0.20010608     0.44700
H929        H  0.74716128  0.63554078  0.15586957    -0.04300
C930        C  0.72983392  0.63772879  0.30385224     0.44800
H931        H  0.72614040  0.63741160  0.34866414    -0.04300
C932        C  0.69559643  0.65573404  0.21756799    -0.18000
C933        C  0.72039726  0.60850894  0.22541973    -0.17800
C934        C  0.79414145  0.64365544  0.22856632    -0.18100
C935        C  0.69164367  0.65791381  0.27437279    -0.18100
C936        C  0.71422191  0.61057235  0.28155872    -0.17700
C937        C  0.78867223  0.64477757  0.28388139    -0.18000
C938        C  0.26210409  0.87551762  0.18646554     0.44700
H939        H  0.25675909  0.87962074  0.14345368    -0.04300
C940        C  0.26390947  0.87340474  0.29056376     0.44800
H941        H  0.26419334  0.87267501  0.33555619    -0.04300
C942        C  0.29921560  0.85223905  0.20515342    -0.18000
C943        C  0.28842333  0.89963456  0.21235233    -0.17800
C944        C  0.20395765  0.86939114  0.21215460    -0.18100
C945        C  0.29901585  0.85170386  0.26227511    -0.18100
C946        C  0.28831549  0.89955970  0.26779149    -0.17700
C947        C  0.20557447  0.86713496  0.26834537    -0.18000
C948        C  0.73022307  0.86638905  0.30404181     0.44700
H949        H  0.73246513  0.87339031  0.34556998    -0.04300
C950        C  0.73352258  0.85557344  0.20289148     0.44800
H951        H  0.73532026  0.85215716  0.15896556    -0.04300
C952        C  0.68599772  0.84612508  0.29038259    -0.18000
C953        C  0.71288278  0.88984994  0.26793039    -0.17800
C954        C  0.78693979  0.85383183  0.28615484    -0.18100
C955        C  0.69278779  0.83745053  0.23652938    -0.18100
C956        C  0.71344138  0.88451823  0.21312730    -0.17700
C957        C  0.79039021  0.85004195  0.23039141    -0.18000
C958        C  0.10623663  0.80988870  0.13513512    -0.06900
C959        C  0.07877452  0.82768312  0.17039128    -0.18000
C960        C  0.10650900  0.84989615  0.19106844     0.10300
C961        C  0.16358475  0.85374711  0.17810302    -0.06800
C962        C  0.18681440  0.83765499  0.13745920    -0.18000
C963        C  0.16081614  0.81552581  0.11810841     0.10400
S964        S  0.06745233  0.87221131  0.23379699    -0.33000
S965        S  0.20258469  0.79442433  0.07453908    -0.33000
H966        H  0.18171965  0.77060824  0.09498808     0.28400
H967        H  0.10487126  0.89322032  0.22867684     0.28400
H968        H  0.03568533  0.82443558  0.18145167     0.19000
H969        H  0.22799760  0.84047273  0.12310988     0.19000
C970        C  0.17127572  0.84652991  0.29977641    -0.06900
C971        C  0.16586263  0.82073269  0.27920145    -0.18000
C972        C  0.13626401  0.80090431  0.30666936     0.10300
C973        C  0.11312023  0.80569232  0.35844458    -0.06800
C974        C  0.12105872  0.83075738  0.38111134    -0.18000
C975        C  0.14782325  0.85118940  0.35193044     0.10400
S976        S  0.13128179  0.76945105  0.27410570    -0.33000
S977        S  0.14793536  0.88310268  0.38261318    -0.33000
H978        H  0.14154569  0.89679611  0.33334572     0.28400
H979        H  0.14192448  0.75451930  0.32114556     0.28400
H980        H  0.18493384  0.81557919  0.24093476     0.19000
H981        H  0.10400503  0.83488662  0.42108810     0.19000
C982        C  0.17905930  0.65121867  0.32146561    -0.06900
C983        C  0.12162167  0.65579816  0.31506263    -0.18000
C984        C  0.09304128  0.67660764  0.34113512     0.10300
C985        C  0.11887153  0.69125894  0.38243622    -0.06800
C986        C  0.17441689  0.68520574  0.39294495    -0.18000
C987        C  0.20530221  0.66670757  0.36233323     0.10400
S988        S  0.02618189  0.68500121  0.31458970    -0.33000
S989        S  0.27773547  0.66530868  0.37861368    -0.33000
H990        H  0.28290249  0.69158073  0.39560664     0.28400
H991        H  0.03921736  0.71177642  0.30716601     0.28400
H992        H  0.09909192  0.64424781  0.28609785     0.19000
H993        H  0.19493793  0.69586113  0.42471501     0.19000
C994        C  0.11493099  0.69207217  0.13067718    -0.06900
C995        C  0.09414435  0.66617442  0.12900696    -0.18000
C996        C  0.11645791  0.64560380  0.16154382     0.10300
C997        C  0.15947365  0.65095520  0.19847059    -0.06800
C998        C  0.17663543  0.67725046  0.20271588    -0.18000
C999        C  0.15633986  0.69740685  0.16889961     0.10400
S1000       S  0.08853740  0.61305352  0.15341793    -0.33000
S1001       S  0.18621407  0.72951511  0.17581656    -0.33000
H1002       H  0.13670703  0.74348138  0.16671167     0.28400
H1003       H  0.11027602  0.60176958  0.20079182     0.28400
H1004       H  0.06123508  0.66175886  0.10113702     0.19000
H1005       H  0.20711540  0.68207948  0.23246466     0.19000
C1006       C  0.83323026  0.66199604  0.20000994    -0.06900
C1007       C  0.81563389  0.68815584  0.19516211    -0.18000
C1008       C  0.84846151  0.70761979  0.17222211     0.10300
C1009       C  0.90117463  0.70109479  0.15200412    -0.06800
C1010       C  0.92064104  0.67492898  0.15748383    -0.18000
C1011       C  0.88749516  0.65534126  0.18225506     0.10400
S1012       S  0.81952858  0.74017871  0.16643585    -0.33000
S1013       S  0.91661502  0.62267056  0.18914630    -0.33000
H1014       H  0.86759927  0.60948689  0.20371142     0.28400
H1015       H  0.82223931  0.74006928  0.10946420     0.28400
H1016       H  0.77627478  0.69362035  0.21153825     0.19000
H1017       H  0.96097607  0.66957673  0.14077327     0.19000
C1018       C  0.82431987  0.66294007  0.31642835    -0.06900
C1019       C  0.81136301  0.69003299  0.31705930    -0.18000
C1020       C  0.84344488  0.70825225  0.34430595     0.10300
C1021       C  0.89195951  0.69998666  0.37029586    -0.06800
C1022       C  0.90481012  0.67281378  0.37122829    -0.18000
C1023       C  0.87188236  0.65431560  0.34432994     0.10400
S1024       S  0.81654792  0.74116413  0.35019464    -0.33000
S1025       S  0.89243229  0.62013722  0.34748856    -0.33000
H1026       H  0.83911065  0.60967366  0.34150814     0.28400
H1027       H  0.82126768  0.74159492  0.40690459     0.28400
H1028       H  0.77441975  0.69725215  0.29778714     0.19000
H1029       H  0.94031950  0.66589507  0.39386588     0.19000
C1030       C  0.82207602  0.83936969  0.32846229    -0.06900
C1031       C  0.87848543  0.84559480  0.33532200    -0.18000
C1032       C  0.91262190  0.83150357  0.37240526     0.10300
C1033       C  0.89022775  0.81078644  0.40509677    -0.06800
C1034       C  0.83301268  0.80673266  0.40194688    -0.18000
C1035       C  0.80010965  0.81886585  0.36254725     0.10400
S1036       S  0.98393474  0.84111156  0.37558232    -0.33000
S1037       S  0.73727063  0.80118771  0.34809702    -0.33000
H1038       H  0.72754541  0.79071700  0.40031968     0.28400
H1039       H  0.98663942  0.83875469  0.43231692     0.28400
H1040       H  0.89653509  0.86112576  0.31062879     0.19000
H1041       H  0.81451808  0.79133812  0.42653954     0.19000
C1042       C  0.90239044  0.80940342  0.11570128    -0.06900
C1043       C  0.89727909  0.80007560  0.16881016    -0.18000
C1044       C  0.86290826  0.81245236  0.20740719     0.10300
C1045       C  0.83781514  0.83750718  0.19666967    -0.06800
C1046       C  0.84973126  0.84859654  0.14477422    -0.18000
C1047       C  0.87963762  0.83454330  0.10389162     0.10400
S1048       S  0.84175265  0.79052137  0.26001949    -0.33000
S1049       S  0.88236270  0.84856523  0.03661808    -0.33000
H1050       H  0.92826041  0.83383143  0.01789379     0.28400
H1051       H  0.78566047  0.79296123  0.24603905     0.28400
H1052       H  0.91453944  0.78086075  0.17842822     0.19000
H1053       H  0.83104131  0.86738134  0.13412051     0.19000
C1054       C  0.62307396  0.55838489  0.39194767    -0.06900
C1055       C  0.59576952  0.57431877  0.35399163    -0.18000
C1056       C  0.62407443  0.59175457  0.31986975     0.10300
C1057       C  0.68252164  0.59237108  0.31919837    -0.06800
C1058       C  0.71058951  0.57717334  0.35860170    -0.18000
C1059       C  0.68173530  0.56003085  0.39461435     0.10400
S1060       S  0.58357388  0.61550568  0.28375252    -0.33000
S1061       S  0.72250492  0.54192502  0.44315845    -0.33000
H1062       H  0.67941472  0.53566744  0.47970345     0.28400
H1063       H  0.53217081  0.60263222  0.28745842     0.28400
H1064       H  0.55086389  0.57407743  0.35286103     0.19000
H1065       H  0.75535318  0.57836178  0.36068412     0.19000
C1066       C  0.61651308  0.55906405  0.12837367    -0.06900
C1067       C  0.62902314  0.55170649  0.18204006    -0.18000
C1068       C  0.67334790  0.56317240  0.20988009     0.10300
C1069       C  0.69798833  0.58642978  0.18948875    -0.06800
C1070       C  0.69328016  0.59031252  0.13295468    -0.18000
C1071       C  0.65267035  0.57749691  0.10269261     0.10400
S1072       S  0.70963754  0.54216240  0.25676769    -0.33000
S1073       S  0.64681469  0.58806132  0.03305772    -0.33000
H1074       H  0.59243145  0.59786312  0.03977310     0.28400
H1075       H  0.75926713  0.55660310  0.25501832     0.28400
H1076       H  0.60642223  0.53583982  0.20135024     0.19000
H1077       H  0.71727964  0.60492537  0.11165808     0.19000
C1078       C  0.27320351  0.56382481  0.18356871    -0.06900
C1079       C  0.29924745  0.54160556  0.20745279    -0.18000
C1080       C  0.34694950  0.52989621  0.18324310     0.10300
C1081       C  0.36559596  0.53852294  0.13153768    -0.06800
C1082       C  0.32900348  0.55491942  0.10236600    -0.18000
C1083       C  0.28143735  0.56606312  0.12668777     0.10400
S1084       S  0.38500881  0.50662712  0.22288663    -0.33000
S1085       S  0.22750096  0.57626738  0.08118342    -0.33000
H1086       H  0.18442177  0.57269995  0.11966327     0.28400
H1087       H  0.43629634  0.51914912  0.21443343     0.28400
H1088       H  0.28699181  0.53528414  0.24776664     0.19000
H1089       H  0.33655985  0.55853053  0.05955154     0.19000
C1090       C  0.38946395  0.54999658  0.37256661    -0.06900
C1091       C  0.40721625  0.55963517  0.32237723    -0.18000
C1092       C  0.37088513  0.57211544  0.28691153     0.10300
C1093       C  0.31331347  0.57487908  0.30131666    -0.06800
C1094       C  0.29527567  0.56403487  0.35101345    -0.18000
C1095       C  0.33227874  0.55129937  0.38621580     0.10400
S1096       S  0.40531423  0.58455431  0.22690622    -0.33000
S1097       S  0.30375399  0.53671861  0.44724729    -0.33000
H1098       H  0.34080707  0.51513414  0.44790262     0.28400
H1099       H  0.35933436  0.59133559  0.19700076     0.28400
H1100       H  0.45096030  0.55852219  0.31150947     0.19000
H1101       H  0.25192265  0.56580483  0.36284394     0.19000
C1102       C  0.62397583  0.93903496  0.10139946    -0.06900
C1103       C  0.62024592  0.91164341  0.09557865    -0.18000
C1104       C  0.64948491  0.89358452  0.12879169     0.10300
C1105       C  0.68560755  0.90258373  0.17030373    -0.06800
C1106       C  0.69131417  0.93017226  0.17422931    -0.18000
C1107       C  0.66164777  0.94816637  0.14099192     0.10400
S1108       S  0.63178324  0.85953157  0.12108328    -0.33000
S1109       S  0.67160131  0.98255184  0.15424148    -0.33000
H1110       H  0.68666097  0.98846355  0.10022016     0.28400
H1111       H  0.60769130  0.86132800  0.06957219     0.28400
H1112       H  0.59157384  0.90417741  0.06615053     0.19000
H1113       H  0.71853133  0.93798499  0.20463914     0.19000
C1114       C  0.61721205  0.93592040  0.38218072    -0.06900
C1115       C  0.59023965  0.92124707  0.34290676    -0.18000
C1116       C  0.61894928  0.90956403  0.29935972     0.10300
C1117       C  0.67804889  0.91045328  0.29661470    -0.06800
C1118       C  0.70503174  0.92549786  0.33594275    -0.18000
C1119       C  0.67558033  0.93839749  0.37788429     0.10400
S1120       S  0.57519197  0.89603671  0.24810951    -0.33000
S1121       S  0.71534762  0.95635526  0.42651219    -0.33000
H1122       H  0.67985898  0.95102977  0.47099170     0.28400
H1123       H  0.61136360  0.87646109  0.23065664     0.28400
H1124       H  0.54552953  0.91963471  0.34509293     0.19000
H1125       H  0.74998677  0.92599800  0.33572507     0.19000
C1126       C  0.39642141  0.95480834  0.35537376    -0.06900
C1127       C  0.34025579  0.95140801  0.37165336    -0.18000
C1128       C  0.30369515  0.93490107  0.34295946     0.10300
C1129       C  0.32415560  0.91868935  0.30043233    -0.06800
C1130       C  0.38090570  0.92175818  0.28687520    -0.18000
C1131       C  0.41441684  0.94122691  0.30883211     0.10400
S1132       S  0.23166205  0.93597558  0.36218621    -0.33000
S1133       S  0.47875616  0.94810583  0.27385979    -0.33000
H1134       H  0.47138353  0.97560884  0.27616965     0.28400
H1135       H  0.21179415  0.93036841  0.31025518     0.28400
H1136       H  0.32430254  0.96204331  0.40656691     0.19000
H1137       H  0.40083255  0.90902779  0.25880654     0.19000
C1138       C  0.32598054  0.91681985  0.17982072    -0.06900
C1139       C  0.30788922  0.94267306  0.17010063    -0.18000
C1140       C  0.34237325  0.96095078  0.14406357     0.10300
C1141       C  0.39792571  0.95373434  0.13160448    -0.06800
C1142       C  0.41563440  0.92798421  0.14009199    -0.18000
C1143       C  0.38059987  0.90918454  0.16221871     0.10400
S1144       S  0.31170336  0.99250739  0.12787558    -0.33000
S1145       S  0.41405545  0.87747241  0.17066677    -0.33000
H1146       H  0.39474556  0.87144576  0.22292450     0.28400
H1147       H  0.35183150  0.00141936  0.09073683     0.28400
H1148       H  0.26623020  0.94855189  0.18236678     0.19000
H1149       H  0.45745844  0.92221523  0.12784364     0.19000
C1150       C  0.31515145  0.82999404  0.29787313    -0.06900
C1151       C  0.29243360  0.80509715  0.28879990    -0.18000
C1152       C  0.30171532  0.78455781  0.32465207     0.10300
C1153       C  0.33243535  0.78942094  0.37122560    -0.06800
C1154       C  0.35065218  0.81465598  0.38328365    -0.18000
C1155       C  0.34409742  0.83491844  0.34601221     0.10400
S1156       S  0.27716111  0.75223551  0.30736107    -0.33000
S1157       S  0.37844729  0.86576818  0.35795807    -0.33000
H1158       H  0.38790373  0.86171661  0.41355741     0.28400
H1159       H  0.27702433  0.74209811  0.36058041     0.28400
H1160       H  0.27017419  0.80122395  0.25206538     0.19000
H1161       H  0.37580367  0.81770177  0.41873496     0.19000
C1162       C  0.37106079  0.79087325  0.09924998    -0.06900
C1163       C  0.34801381  0.81326979  0.07567798    -0.18000
C1164       C  0.32957453  0.83470837  0.10722446     0.10300
C1165       C  0.32908643  0.83275957  0.16576652    -0.06800
C1166       C  0.36109031  0.81173105  0.18690513    -0.18000
C1167       C  0.37886574  0.79035267  0.15535886     0.10400
S1168       S  0.31836015  0.86491249  0.06923498    -0.33000
S1169       S  0.41286328  0.76265926  0.18716144    -0.33000
H1170       H  0.40025793  0.76965745  0.24110869     0.28400
H1171       H  0.31442480  0.85409140  0.01706606     0.28400
H1172       H  0.34786828  0.81450611  0.03182421     0.19000
H1173       H  0.37549688  0.81212727  0.22768201     0.19000
C1174       C  0.54677809  0.82307148  0.39352319    -0.06900
C1175       C  0.59313092  0.83376544  0.41798083    -0.18000
C1176       C  0.63900591  0.84223950  0.38745486     0.10300
C1177       C  0.63676605  0.84154797  0.32906820    -0.06800
C1178       C  0.58391891  0.83762418  0.30671270    -0.18000
C1179       C  0.53973775  0.82754248  0.33756702     0.10400
S1180       S  0.69896339  0.85068280  0.42734858    -0.33000
S1181       S  0.47763596  0.81930027  0.30204696    -0.33000
H1182       H  0.48319034  0.79209215  0.31082509     0.28400
H1183       H  0.67737661  0.84645941  0.47994772     0.28400
H1184       H  0.59599668  0.83219832  0.46164923     0.19000
H1185       H  0.57813863  0.83946590  0.26353375     0.19000
C1186       C  0.60149472  0.78074559  0.14725833    -0.06900
C1187       C  0.64752040  0.79359912  0.12508946    -0.18000
C1188       C  0.68519112  0.80591046  0.15715332     0.10300
C1189       C  0.67001278  0.81259593  0.21092892    -0.06800
C1190       C  0.63013954  0.79599725  0.23582422    -0.18000
C1191       C  0.59546816  0.78010949  0.20420271     0.10400
S1192       S  0.75522907  0.80437505  0.13163637    -0.33000
S1193       S  0.54452676  0.76027945  0.23787820    -0.33000
H1194       H  0.55929365  0.73739914  0.20901493     0.28400
H1195       H  0.74301833  0.80803956  0.07645345     0.28400
H1196       H  0.65773567  0.79192346  0.08236711     0.19000
H1197       H  0.62586409  0.79500331  0.27933057     0.19000
C1198       C  0.61998594  0.72020922  0.37495803    -0.06900
C1199       C  0.59459082  0.71260942  0.32669935    -0.18000
C1200       C  0.61350841  0.69158005  0.29557064     0.10300
C1201       C  0.66376996  0.67903015  0.30856919    -0.06800
C1202       C  0.68869038  0.68647042  0.35823910    -0.18000
C1203       C  0.66822643  0.70697043  0.39061791     0.10400
S1204       S  0.56650459  0.67876527  0.24715435    -0.33000
S1205       S  0.70745583  0.71607629  0.44905943    -0.33000
H1206       H  0.69551101  0.74318763  0.44472247     0.28400
H1207       H  0.51835830  0.69263045  0.26336257     0.28400
H1208       H  0.55697069  0.72221367  0.31447481     0.19000
H1209       H  0.72571162  0.67702436  0.37270048     0.19000
C1210       C  0.62330327  0.69480409  0.07533300    -0.06900
C1211       C  0.60850753  0.66919598  0.09012886    -0.18000
C1212       C  0.62828180  0.65710031  0.13763851     0.10300
C1213       C  0.66524664  0.67043763  0.17238315    -0.06800
C1214       C  0.67954750  0.69632540  0.15724506    -0.18000
C1215       C  0.66234437  0.70763920  0.10768639     0.10400
S1216       S  0.59584843  0.62702898  0.15851956    -0.33000
S1217       S  0.69302217  0.73785249  0.08481347    -0.33000
H1218       H  0.70692847  0.74650377  0.13678794     0.28400
H1219       H  0.56032148  0.62379265  0.11448293     0.28400
H1220       H  0.57731645  0.65948229  0.06646496     0.19000
H1221       H  0.70321446  0.70824763  0.18396193     0.19000
C1222       C  0.34935228  0.65233631  0.27017438    -0.06900
C1223       C  0.38388726  0.64176600  0.31058245    -0.18000
C1224       C  0.41631649  0.65802939  0.34233063     0.10300
C1225       C  0.41590384  0.68518314  0.33174542    -0.06800
C1226       C  0.38847391  0.69528738  0.28674867    -0.18000
C1227       C  0.35379348  0.67944234  0.25668562     0.10400
S1228       S  0.45187193  0.64357435  0.39920017    -0.33000
S1229       S  0.31025383  0.69569202  0.20804296    -0.33000
H1230       H  0.34275455  0.71823146  0.20065140     0.28400
H1231       H  0.48884407  0.66445121  0.40693714     0.28400
H1232       H  0.38153467  0.62117584  0.32132934     0.19000
H1233       H  0.38864709  0.71637932  0.27950950     0.19000
C1234       C  0.32219922  0.64152328  0.14929547    -0.06900
C1235       C  0.37987792  0.64317763  0.15623867    -0.18000
C1236       C  0.41066314  0.66231492  0.12975945     0.10300
C1237       C  0.38488123  0.67806184  0.09147393    -0.06800
C1238       C  0.33077489  0.67272926  0.07548364    -0.18000
C1239       C  0.29854614  0.65453170  0.10390304     0.10400
S1240       S  0.48133630  0.66775761  0.14730846    -0.33000
S1241       S  0.22842897  0.64999509  0.08164746    -0.33000
H1242       H  0.22755907  0.66921035  0.04031599     0.28400
H1243       H  0.48414184  0.64838782  0.18822055     0.28400
H1244       H  0.39976166  0.63239599  0.18796648     0.19000
H1245       H  0.31303771  0.68394640  0.04238443     0.19000
O1246       O  0.43624131  0.71931025  0.58348550    -0.80900
O1247       O  0.55539454  0.75350763  0.88528052    -0.80900
O1248       O  0.39160328  0.70858120  0.91041734    -0.80900
O1249       O  0.59355970  0.73199997  0.51246023    -0.80900
O1250       O  0.47405781  0.71591800  0.86965595    -0.81000
O1251       O  0.53217976  0.70775689  0.54778676    -0.80900
O1252       O  0.58748864  0.73828577  0.96149348    -0.80900
O1253       O  0.41116944  0.69956946  0.50956954    -0.80900
C1254       C  0.41434560  0.69992317  0.55977811     1.08800
C1255       C  0.58774043  0.73840009  0.90952697     1.08700
C1256       C  0.43005875  0.70279385  0.87568029     1.08800
C1257       C  0.58266172  0.71156046  0.54154006     1.08700
O1258       O  0.52736154  0.75186975  0.61479503    -0.80900
O1259       O  0.39543781  0.75417954  0.87041854    -0.81000
O1260       O  0.37319317  0.75235925  0.54612246    -0.80900
O1261       O  0.54764739  0.78735195  0.95893247    -0.80900
O1262       O  0.47229186  0.79023319  0.91097648    -0.80900
O1263       O  0.44970563  0.77495065  0.54958038    -0.80900
O1264       O  0.57307638  0.77592847  0.55601030    -0.80900
O1265       O  0.35835768  0.76265020  0.94787000    -0.80900
Co1266     Co  0.49242730  0.74189571  0.54464401     1.51500
Co1267     Co  0.47438026  0.75264472  0.89013153     1.51700
Co1268     Co  0.38750283  0.73012096  0.97928125     1.51600
Co1269     Co  0.52738483  0.75861612  0.50503635     1.51500
O1270       O  0.46941069  0.73894208  0.46514827    -1.42800
C1271       C  0.56467854  0.76914662  0.60511194     1.08700
C1272       C  0.36059383  0.76640554  0.89827240     1.08800
C1273       C  0.39937547  0.77244202  0.56206909     1.08800
C1274       C  0.51781900  0.79981985  0.92513876     1.08700
O1275       O  0.59223286  0.98109242  0.56557653    -0.80900
O1276       O  0.58764347  0.51994671  0.93949179    -0.80900
O1277       O  0.53258772  0.94384157  0.93976479    -0.80900
O1278       O  0.56053874  0.55123081  0.55051120    -0.80900
O1279       O  0.59263462  0.97558923  0.92794241    -0.81000
O1280       O  0.54268494  0.52730514  0.62105897    -0.80900
O1281       O  0.54098742  0.55620935  0.94590762    -0.80900
O1282       O  0.54068557  0.94638043  0.54985669    -0.80900
C1283       C  0.58511843  0.95637154  0.56921458     1.08800
C1284       C  0.58427468  0.54434082  0.93010243     1.08700
C1285       C  0.57939711  0.95194237  0.92163408     1.08800
C1286       C  0.57090579  0.54521415  0.59873730     1.08700
O1287       O  0.44481240  0.50932334  0.61258596    -0.80900
O1288       O  0.48198447  0.97686442  0.87895792    -0.81000
O1289       O  0.42596833  0.97038396  0.54836783    -0.80900
O1290       O  0.42540991  0.54561810  0.95952701    -0.80900
O1291       O  0.47601948  0.53077863  0.89092975    -0.80900
O1292       O  0.48432506  0.97545627  0.61300264    -0.80900
O1293       O  0.44000879  0.54788608  0.56947681    -0.80900
O1294       O  0.42218157  0.96884586  0.94410765    -0.80900
Co1295     Co  0.51952983  0.49646365  0.57725804     1.51500
Co1296     Co  0.51534770  0.50097699  0.92922203     1.51700
Co1297     Co  0.48254345  0.95938920  0.49506126     1.51600
Co1298     Co  0.49236755  0.54640885  0.50734511     1.51500
O1299       O  0.49277703  0.50517899  0.50518897    -1.42800
C1300       C  0.42043178  0.53186969  0.60396197     1.08700
C1301       C  0.43401305  0.96891124  0.89441221     1.08800
C1302       C  0.43719925  0.96822757  0.59736013     1.08800
C1303       C  0.43163380  0.54171252  0.90912571     1.08700
O1304       O  0.89780946  0.76976753  0.56465064    -0.80900
O1305       O  0.08955700  0.78145010  0.94269688    -0.80900
O1306       O  0.04515204  0.77501845  0.63836251    -0.80900
O1307       O  0.97316562  0.78855434  0.94069116    -0.80900
O1308       O  0.08783409  0.78362982  0.55898891    -0.81000
O1309       O  0.89559718  0.76802307  0.95290461    -0.80900
O1310       O  0.04622096  0.76934452  0.86729686    -0.80900
O1311       O  0.97463625  0.79123565  0.56225890    -0.80900
C1312       C  0.92430809  0.79047744  0.57613711     1.08800
C1313       C  0.08180996  0.78381791  0.89071086     1.08700
C1314       C  0.07878346  0.78878524  0.60987009     1.08800
C1315       C  0.92119023  0.78827099  0.93556656     1.08700
O1316       O  0.92152469  0.71165555  0.95763375    -0.80900
O1317       O  0.11936382  0.72646341  0.55564416    -0.81000
O1318       O  0.95265868  0.74063978  0.62518985    -0.80900
O1319       O  0.04207728  0.71898634  0.90753470    -0.80900
O1320       O  0.11681991  0.72449774  0.95180483    -0.80900
O1321       O  0.92645377  0.71336572  0.56250611    -0.80900
O1322       O  0.94580380  0.73695543  0.88928959    -0.80900
O1323       O  0.04549569  0.72355446  0.60479679    -0.80900
Co1324     Co  0.91715718  0.74153074  0.50859845     1.51500
Co1325     Co  0.09090378  0.75240474  0.00391412     1.51700
Co1326     Co  0.01386978  0.75730905  0.57862617     1.51600
Co1327     Co  0.01095399  0.75365355  0.92931075     1.51500
O1328       O  0.00287301  0.74346972  0.50510488    -1.42800
C1329       C  0.92121896  0.71633949  0.90774724     1.08700
C1330       C  0.09301491  0.71532773  0.59374309     1.08800
C1331       C  0.93051475  0.71890428  0.61174521     1.08800
C1332       C  0.09065620  0.71183225  0.91684479     1.08700
C1333       C  0.26805356  0.62181653  0.78889744     0.44700
H1334       H  0.28102651  0.62264004  0.83152512    -0.04300
C1335       C  0.23757789  0.61667769  0.69008971     0.44800
H1336       H  0.22236422  0.61472992  0.64936881    -0.04300
C1337       C  0.30508851  0.63678388  0.74835612    -0.18000
C1338       C  0.27250254  0.59323722  0.76861021    -0.17800
C1339       C  0.20993707  0.63390976  0.77954416    -0.18100
C1340       C  0.28981241  0.63354539  0.69487139    -0.18100
C1341       C  0.25481242  0.58963750  0.71575212    -0.17700
C1342       C  0.19423004  0.63174396  0.72576883    -0.22700
C1343       C  0.73902992  0.63519085  0.69812071     0.44700
H1344       H  0.74533975  0.63556258  0.65380784    -0.04300
C1345       C  0.72919407  0.63767163  0.80197637     0.44800
H1346       H  0.72567297  0.63767156  0.84685444    -0.04300
C1347       C  0.69451745  0.65577954  0.71595399    -0.18000
C1348       C  0.71955480  0.60846466  0.72382592    -0.17800
C1349       C  0.79333312  0.64358023  0.72604965    -0.18100
C1350       C  0.69117182  0.65794707  0.77268710    -0.18100
C1351       C  0.71320461  0.61054202  0.77994264    -0.17700
C1352       C  0.78791777  0.64454261  0.78143293    -0.18000
C1353       C  0.26503927  0.87517614  0.68935760     0.44700
H1354       H  0.26011482  0.87950016  0.64636850    -0.04300
C1355       C  0.26557234  0.87252565  0.79341938     0.44800
H1356       H  0.26572344  0.87162964  0.83838167    -0.04300
C1357       C  0.30180936  0.85179828  0.70801167    -0.18000
C1358       C  0.29114239  0.89910254  0.71575785    -0.17800
C1359       C  0.20663951  0.86904318  0.71435156    -0.18100
C1360       C  0.30082447  0.85086147  0.76512904    -0.18100
C1361       C  0.28985462  0.89885826  0.77111163    -0.17700
C1362       C  0.20750310  0.86630990  0.77055062    -0.18000
C1363       C  0.72757740  0.86554850  0.80571612     0.44700
H1364       H  0.73006339  0.87226312  0.84734735    -0.04300
C1365       C  0.73116824  0.85566367  0.70418473     0.44800
H1366       H  0.73289891  0.85286175  0.66006191    -0.04300
C1367       C  0.68351665  0.84531802  0.79132163    -0.18000
C1368       C  0.71006749  0.88931405  0.77029618    -0.17800
C1369       C  0.78434581  0.85311468  0.78747361    -0.18100
C1370       C  0.69065217  0.83716968  0.73711812    -0.18100
C1371       C  0.71075858  0.88436260  0.71538046    -0.17700
C1372       C  0.78792927  0.85000903  0.73156090    -0.18000
C1373       C  0.10761693  0.81174286  0.63279949    -0.06900
C1374       C  0.08071729  0.82906380  0.66941459    -0.18000
C1375       C  0.10891031  0.85080915  0.69135180     0.10300
C1376       C  0.16612055  0.85438516  0.67888815    -0.06800
C1377       C  0.18892918  0.83906423  0.63667213    -0.18000
C1378       C  0.16194389  0.81770755  0.61509252     0.10400
S1379       S  0.07044138  0.87267442  0.73558672    -0.33000
S1380       S  0.20250631  0.79778464  0.56826206    -0.33000
H1381       H  0.18586342  0.77354917  0.59050053     0.28400
H1382       H  0.10857881  0.89346023  0.73226075     0.28400
H1383       H  0.03775576  0.82572120  0.68083000     0.19000
H1384       H  0.23053270  0.84167096  0.62270644     0.19000
C1385       C  0.17242943  0.84570107  0.80150587    -0.06900
C1386       C  0.16452851  0.82032263  0.77955086    -0.18000
C1387       C  0.13426137  0.80052028  0.80661234     0.10300
C1388       C  0.11308215  0.80474064  0.85947009    -0.06800
C1389       C  0.12348470  0.82935212  0.88336237    -0.18000
C1390       C  0.15108674  0.84980577  0.85476414     0.10400
S1391       S  0.12600369  0.76976932  0.77194705    -0.33000
S1392       S  0.15589434  0.88103982  0.88801007    -0.33000
H1393       H  0.14860330  0.89577000  0.84015334     0.28400
H1394       H  0.13730588  0.75388156  0.81749859     0.28400
H1395       H  0.18260957  0.81536265  0.74069378     0.19000
H1396       H  0.10799319  0.83311199  0.92407176     0.19000
C1397       C  0.18047842  0.65230057  0.82024306    -0.06900
C1398       C  0.12250936  0.65504920  0.81659636    -0.18000
C1399       C  0.09207412  0.67357141  0.84727194     0.10300
C1400       C  0.11859275  0.68977389  0.88555910    -0.06800
C1401       C  0.17562035  0.68605372  0.89188246    -0.18000
C1402       C  0.20677255  0.66804005  0.86052056     0.10400
S1403       S  0.01936521  0.67513430  0.83516903    -0.33000
S1404       S  0.27997341  0.66853796  0.87272165    -0.33000
H1405       H  0.27775283  0.67773761  0.92643999     0.28400
H1406       H  0.00862733  0.67340320  0.89114098     0.28400
H1407       H  0.10026298  0.64281425  0.78855931     0.19000
H1408       H  0.19694348  0.69841563  0.92032156     0.19000
C1409       C  0.11783960  0.69397089  0.62827037    -0.06900
C1410       C  0.09706556  0.66811586  0.62631929    -0.18000
C1411       C  0.11851202  0.64767082  0.65954748     0.10300
C1412       C  0.16040426  0.65309326  0.69757921    -0.06800
C1413       C  0.17781801  0.67937690  0.70187359    -0.18000
C1414       C  0.15850228  0.69944669  0.66721405     0.10400
S1415       S  0.09205613  0.61496560  0.65017034    -0.33000
S1416       S  0.18935593  0.73144702  0.67332403    -0.33000
H1417       H  0.14108938  0.74586906  0.66151355     0.28400
H1418       H  0.10656045  0.60515018  0.70150189     0.28400
H1419       H  0.06488133  0.66363558  0.59768665     0.19000
H1420       H  0.20831418  0.68418535  0.73167695     0.19000
C1421       C  0.83318081  0.66172186  0.69716949    -0.06900
C1422       C  0.81461610  0.68745769  0.68844697    -0.18000
C1423       C  0.84803190  0.70703131  0.66662963     0.10300
C1424       C  0.90246878  0.70106480  0.65052850    -0.06800
C1425       C  0.92287699  0.67524171  0.65939642    -0.18000
C1426       C  0.88907262  0.65563272  0.68372338     0.10400
S1427       S  0.81807007  0.73915886  0.65735768    -0.33000
S1428       S  0.91923173  0.62355117  0.69560843    -0.33000
H1429       H  0.86915010  0.60968709  0.69998099     0.28400
H1430       H  0.82148844  0.73754867  0.60050632     0.28400
H1431       H  0.77407327  0.69266078  0.70159229     0.19000
H1432       H  0.96454743  0.67014598  0.64586368     0.19000
C1433       C  0.82375885  0.66219359  0.81433328    -0.06900
C1434       C  0.81484234  0.68959468  0.81125439    -0.18000
C1435       C  0.84609112  0.70729505  0.84077604     0.10300
C1436       C  0.88885225  0.69804434  0.87381948    -0.06800
C1437       C  0.89400907  0.67051794  0.88161568    -0.18000
C1438       C  0.86359819  0.65256710  0.85084649     0.10400
S1439       S  0.82248382  0.74077128  0.84310917    -0.33000
S1440       S  0.87630747  0.61785013  0.86149078    -0.33000
H1441       H  0.85708622  0.60913014  0.81127103     0.28400
H1442       H  0.82128938  0.74160565  0.90005908     0.28400
H1443       H  0.78033957  0.69736413  0.78871656     0.19000
H1444       H  0.92193783  0.66282778  0.91188256     0.19000
C1445       C  0.81980339  0.83811033  0.82891744    -0.06900
C1446       C  0.87682282  0.84355020  0.83387124    -0.18000
C1447       C  0.91131869  0.82924310  0.87025970     0.10300
C1448       C  0.88874771  0.80911775  0.90435019    -0.06800
C1449       C  0.83131579  0.80555083  0.90255150    -0.18000
C1450       C  0.79787741  0.81788427  0.86383219     0.10400
S1451       S  0.98350394  0.83757375  0.87026109    -0.33000
S1452       S  0.73393249  0.80070787  0.85162211    -0.33000
H1453       H  0.72489895  0.79098698  0.90456619     0.28400
H1454       H  0.98744784  0.83694400  0.92708928     0.28400
H1455       H  0.89503300  0.85867771  0.80823145     0.19000
H1456       H  0.81284406  0.79042809  0.92790765     0.19000
C1457       C  0.90070634  0.80930232  0.61755301    -0.06900
C1458       C  0.89125726  0.79889379  0.66934152    -0.18000
C1459       C  0.85621367  0.81132754  0.70728681     0.10300
C1460       C  0.83502694  0.83722147  0.69807060    -0.06800
C1461       C  0.85042389  0.84907410  0.64785581    -0.18000
C1462       C  0.88119137  0.83524880  0.60715652     0.10400
S1463       S  0.82853624  0.78912277  0.75625052    -0.33000
S1464       S  0.88878567  0.85083445  0.54163548    -0.33000
H1465       H  0.93109455  0.83434690  0.52134110     0.28400
H1466       H  0.77344822  0.79545238  0.74396346     0.28400
H1467       H  0.90571495  0.77906636  0.67799312     0.19000
H1468       H  0.83406268  0.86846690  0.63822362     0.19000
C1469       C  0.62197143  0.55875419  0.89165666    -0.06900
C1470       C  0.59474874  0.57398494  0.85252120    -0.18000
C1471       C  0.62299093  0.59120414  0.81774899     0.10300
C1472       C  0.68145982  0.59231206  0.81776341    -0.06800
C1473       C  0.70939876  0.57770786  0.85820912    -0.18000
C1474       C  0.68055230  0.56080890  0.89481076     0.10400
S1475       S  0.58234918  0.61329941  0.77763518    -0.33000
S1476       S  0.72118949  0.54353695  0.94472886    -0.33000
H1477       H  0.67758256  0.53644493  0.98000050     0.28400
H1478       H  0.52973188  0.60763694  0.80004604     0.28400
H1479       H  0.54996400  0.57301892  0.85033902     0.19000
H1480       H  0.75408692  0.57924470  0.86078638     0.19000
C1481       C  0.61743495  0.55856437  0.62758619    -0.06900
C1482       C  0.62943529  0.55146343  0.68143918    -0.18000
C1483       C  0.67374867  0.56293188  0.70910423     0.10300
C1484       C  0.69845983  0.58605318  0.68827943    -0.06800
C1485       C  0.69461022  0.58953081  0.63164618    -0.18000
C1486       C  0.65412392  0.57664411  0.60148529     0.10400
S1487       S  0.71013291  0.54202733  0.75611528    -0.33000
S1488       S  0.64892284  0.58686876  0.53156914    -0.33000
H1489       H  0.59460432  0.59684385  0.53766427     0.28400
H1490       H  0.75953175  0.55664733  0.75462268     0.28400
H1491       H  0.60632370  0.53588583  0.70108924     0.19000
H1492       H  0.71919178  0.60388829  0.61020919     0.19000
C1493       C  0.27361442  0.56607013  0.68036698    -0.06900
C1494       C  0.29781498  0.54343136  0.70430554    -0.18000
C1495       C  0.34548602  0.53129551  0.68109067     0.10300
C1496       C  0.36601954  0.53993288  0.63010053    -0.06800
C1497       C  0.33163534  0.55721735  0.60056574    -0.18000
C1498       C  0.28409733  0.56885169  0.62381671     0.10400
S1499       S  0.38129573  0.50749598  0.72136463    -0.33000
S1500       S  0.23307852  0.58053448  0.57658240    -0.33000
H1501       H  0.18790366  0.57608023  0.61222796     0.28400
H1502       H  0.43338787  0.51943683  0.71417243     0.28400
H1503       H  0.28416853  0.53707850  0.74419177     0.19000
H1504       H  0.34090560  0.56117828  0.55818016     0.19000
C1505       C  0.38889111  0.55127739  0.87095424    -0.06900
C1506       C  0.40711937  0.56119791  0.82109590    -0.18000
C1507       C  0.37093256  0.57341520  0.78501336     0.10300
C1508       C  0.31319301  0.57605315  0.79883511    -0.06800
C1509       C  0.29469469  0.56488845  0.84809677    -0.18000
C1510       C  0.33143589  0.55208831  0.88354205     0.10400
S1511       S  0.40575337  0.58601463  0.72530862    -0.33000
S1512       S  0.30223810  0.53656804  0.94325390    -0.33000
H1513       H  0.33999007  0.51525398  0.94347961     0.28400
H1514       H  0.35996407  0.59321341  0.69556064     0.28400
H1515       H  0.45103039  0.56038878  0.81086336     0.19000
H1516       H  0.25114836  0.56639690  0.85934298     0.19000
C1517       C  0.62488417  0.93879134  0.60103981    -0.06900
C1518       C  0.61805647  0.91145435  0.59784906    -0.18000
C1519       C  0.64535573  0.89347144  0.63255974     0.10300
C1520       C  0.68315769  0.90243326  0.67259787    -0.06800
C1521       C  0.69197152  0.92988691  0.67407220    -0.18000
C1522       C  0.66422026  0.94785981  0.63912677     0.10400
S1523       S  0.62380275  0.85975754  0.62842792    -0.33000
S1524       S  0.67983879  0.98218044  0.64709785    -0.33000
H1525       H  0.69150080  0.98607063  0.59155255     0.28400
H1526       H  0.58620969  0.86200232  0.58556963     0.28400
H1527       H  0.58863112  0.90407479  0.56908832     0.19000
H1528       H  0.72055937  0.93757444  0.70339923     0.19000
C1529       C  0.61433854  0.93549206  0.88456376    -0.06900
C1530       C  0.58735382  0.92110186  0.84491519    -0.18000
C1531       C  0.61618190  0.90922969  0.80169319     0.10300
C1532       C  0.67534926  0.90981673  0.79940332    -0.06800
C1533       C  0.70234388  0.92443900  0.83939682    -0.18000
C1534       C  0.67281832  0.93733683  0.88128576     0.10400
S1535       S  0.57252326  0.89540838  0.75081218    -0.33000
S1536       S  0.71248238  0.95427885  0.93147839    -0.33000
H1537       H  0.67551399  0.94915119  0.97489783     0.28400
H1538       H  0.60876554  0.87551951  0.73546098     0.28400
H1539       H  0.54261204  0.91970656  0.84680052     0.19000
H1540       H  0.74730620  0.92455783  0.83979054     0.19000
C1541       C  0.39419096  0.95575752  0.85691108    -0.06900
C1542       C  0.33723964  0.95324047  0.87114853    -0.18000
C1543       C  0.30158715  0.93626490  0.84239789     0.10300
C1544       C  0.32415289  0.91828499  0.80405224    -0.06800
C1545       C  0.38139467  0.92068423  0.79275756    -0.18000
C1546       C  0.41358601  0.94108986  0.81249221     0.10400
S1547       S  0.22824612  0.93920916  0.85526708    -0.33000
S1548       S  0.47711633  0.94833359  0.77638538    -0.33000
H1549       H  0.46869067  0.97579475  0.77795611     0.28400
H1550       H  0.21211047  0.93154184  0.80317355     0.28400
H1551       H  0.32007769  0.96503246  0.90387952     0.19000
H1552       H  0.40228037  0.90713181  0.76715504     0.19000
C1553       C  0.32942731  0.91627331  0.68373262    -0.06900
C1554       C  0.30975014  0.94139542  0.66966326    -0.18000
C1555       C  0.34356273  0.95939397  0.64184684     0.10300
C1556       C  0.39992985  0.95278356  0.63169466    -0.06800
C1557       C  0.41947444  0.92778804  0.64504773    -0.18000
C1558       C  0.38514573  0.90906779  0.66878317     0.10400
S1559       S  0.31088909  0.98975283  0.62020654    -0.33000
S1560       S  0.41952407  0.87760485  0.67927637    -0.33000
H1561       H  0.39591497  0.87047077  0.72911512     0.28400
H1562       H  0.35569453  0.00088368  0.59210516     0.28400
H1563       H  0.26722266  0.94684270  0.67959005     0.19000
H1564       H  0.46198945  0.92236429  0.63464903     0.19000
C1565       C  0.31574240  0.82875802  0.80043864    -0.06900
C1566       C  0.29155482  0.80417618  0.79113559    -0.18000
C1567       C  0.29976780  0.78336941  0.82681139     0.10300
C1568       C  0.33081042  0.78768338  0.87347519    -0.06800
C1569       C  0.35001539  0.81271090  0.88588789    -0.18000
C1570       C  0.34478991  0.83315824  0.84873486     0.10400
S1571       S  0.27251487  0.75153397  0.80969835    -0.33000
S1572       S  0.38007908  0.86374105  0.86120209    -0.33000
H1573       H  0.40122915  0.85711556  0.91240601     0.28400
H1574       H  0.27394121  0.74088769  0.86246592     0.28400
H1575       H  0.26878365  0.80079401  0.75446748     0.19000
H1576       H  0.37460335  0.81540612  0.92181635     0.19000
C1577       C  0.37347893  0.79183683  0.59888820    -0.06900
C1578       C  0.35203131  0.81497095  0.57691618    -0.18000
C1579       C  0.33467302  0.83604470  0.60998668     0.10300
C1580       C  0.33207004  0.83275558  0.66820044    -0.06800
C1581       C  0.36190615  0.81077790  0.68835992    -0.18000
C1582       C  0.38026076  0.79007105  0.65511739     0.10400
S1583       S  0.32753893  0.86737454  0.57496167    -0.33000
S1584       S  0.41395369  0.76170928  0.68485991    -0.33000
H1585       H  0.40194751  0.76783710  0.73938073     0.28400
H1586       H  0.34195352  0.85938522  0.52206383     0.28400
H1587       H  0.35214871  0.81699820  0.53317623     0.19000
H1588       H  0.37439623  0.80993118  0.72970476     0.19000
C1589       C  0.54425931  0.82153222  0.89428646    -0.06900
C1590       C  0.58981910  0.83293146  0.91862046    -0.18000
C1591       C  0.63570910  0.84133814  0.88814958     0.10300
C1592       C  0.63406510  0.84036732  0.82970682    -0.06800
C1593       C  0.58164448  0.83557652  0.80708562    -0.18000
C1594       C  0.53779280  0.82514123  0.83798771     0.10400
S1595       S  0.69424505  0.85063782  0.92900767    -0.33000
S1596       S  0.47709350  0.81507834  0.80222561    -0.33000
H1597       H  0.48611244  0.78812409  0.81210778     0.28400
H1598       H  0.68222805  0.83496879  0.97494201     0.28400
H1599       H  0.59213253  0.83226285  0.96246542     0.19000
H1600       H  0.57598723  0.83725892  0.76384300     0.19000
C1601       C  0.60036969  0.78148220  0.64564659    -0.06900
C1602       C  0.64505058  0.79536651  0.62356340    -0.18000
C1603       C  0.68321992  0.80699551  0.65582659     0.10300
C1604       C  0.66892250  0.81245719  0.71042888    -0.06800
C1605       C  0.63040343  0.79501117  0.73486174    -0.18000
C1606       C  0.59609464  0.77926940  0.70256624     0.10400
S1607       S  0.75256288  0.80616890  0.62817484    -0.33000
S1608       S  0.54858623  0.75722323  0.73518755    -0.33000
H1609       H  0.56538679  0.73556014  0.70342058     0.28400
H1610       H  0.73850084  0.81286231  0.57459430     0.28400
H1611       H  0.65451156  0.79470863  0.58054234     0.19000
H1612       H  0.62685384  0.79337017  0.77838555     0.19000
C1613       C  0.61897309  0.71935247  0.87524505    -0.06900
C1614       C  0.59268258  0.71141651  0.82763952    -0.18000
C1615       C  0.61226169  0.69077643  0.79565143     0.10300
C1616       C  0.66395597  0.67918184  0.80686990    -0.06800
C1617       C  0.69051440  0.68728507  0.85515511    -0.18000
C1618       C  0.66905398  0.70709292  0.88888025     0.10400
S1619       S  0.56517415  0.67712987  0.74814562    -0.33000
S1620       S  0.70903518  0.71651404  0.94656396    -0.33000
H1621       H  0.69414686  0.74334852  0.94402906     0.28400
H1622       H  0.51821216  0.69277985  0.76011203     0.28400
H1623       H  0.55423890  0.72056138  0.81645710     0.19000
H1624       H  0.72883159  0.67844543  0.86792169     0.19000
C1625       C  0.62311704  0.69604302  0.57463776    -0.06900
C1626       C  0.60914537  0.67014049  0.58774517    -0.18000
C1627       C  0.62846175  0.65763497  0.63499723     0.10300
C1628       C  0.66398087  0.67085310  0.67131339    -0.06800
C1629       C  0.67645062  0.69724405  0.65854678    -0.18000
C1630       C  0.66034315  0.70892161  0.60892116     0.10400
S1631       S  0.59704606  0.62701048  0.65346953    -0.33000
S1632       S  0.69074251  0.73947734  0.58796745    -0.33000
H1633       H  0.70298860  0.74774079  0.64068623     0.28400
H1634       H  0.56093334  0.62454252  0.60965085     0.28400
H1635       H  0.57908540  0.66040202  0.56276948     0.19000
H1636       H  0.69820533  0.70912055  0.68708186     0.19000
C1637       C  0.35130397  0.65295945  0.76892750    -0.06900
C1638       C  0.38494827  0.64161688  0.80923408    -0.18000
C1639       C  0.41722603  0.65715741  0.84235474     0.10300
C1640       C  0.41717346  0.68438226  0.83354596    -0.06800
C1641       C  0.39110571  0.69534266  0.78855807    -0.18000
C1642       C  0.35636896  0.68020810  0.75707254     0.10400
S1643       S  0.45205532  0.64176478  0.89862530    -0.33000
S1644       S  0.31350397  0.69718936  0.70864124    -0.33000
H1645       H  0.33277725  0.72281991  0.71681194     0.28400
H1646       H  0.49087862  0.66193159  0.90583631     0.28400
H1647       H  0.38164169  0.62102548  0.81922330     0.19000
H1648       H  0.39250702  0.71649084  0.78248491     0.19000
C1649       C  0.32290876  0.64350274  0.64773451    -0.06900
C1650       C  0.38067759  0.64502778  0.65432470    -0.18000
C1651       C  0.41157308  0.66385528  0.62700145     0.10300
C1652       C  0.38566067  0.67935428  0.58836591    -0.06800
C1653       C  0.33139066  0.67415541  0.57301642    -0.18000
C1654       C  0.29921488  0.65624992  0.60203651     0.10400
S1655       S  0.48248630  0.66924316  0.64393484    -0.33000
S1656       S  0.22880183  0.65240676  0.58040170    -0.33000
H1657       H  0.23480822  0.66364211  0.52835048     0.28400
H1658       H  0.48634864  0.64881811  0.68249438     0.28400
H1659       H  0.40072295  0.63423064  0.68597906     0.19000
H1660       H  0.31317646  0.68547388  0.54027769     0.19000
loop_ 
_geom_bond_atom_site_label_1 
_geom_bond_atom_site_label_2 
_geom_bond_distance 
_geom_bond_site_symmetry_2 
_ccdc_geom_bond_type 
O1            C9   1.273       .  A
O1          Co21   2.026       .  S
O2           C10   1.245       .  A
O2          Co22   1.960       .  S
O3           C11   1.288       .  A
O3          Co23   2.028       .  S
O4           C12   1.279       .  A
O4          Co24   2.067       .  S
O5           C11   1.268       .  A
O5          Co22   1.942       .  S
O6           C12   1.244       .  A
O6          Co21   1.968       .  S
O7           C10   1.282       .  A
O7         Co439   2.077       .  S
O8            C9   1.241       .  A
O8         Co438   1.907   1_554  S
C9          C407   1.440       .  S
C10         C368   1.490       .  S
C11         C395   1.444       .  S
C12         C380   1.490       .  S
O13          C26   1.276       .  A
O13         Co21   1.968       .  S
O14          C27   1.240       .  A
O14         Co22   1.973       .  S
O15          C28   1.273       .  A
O15        Co438   2.052   1_554  S
O16          C29   1.271       .  A
O16        Co439   2.001       .  S
O17          C29   1.259       .  A
O17         Co22   1.973       .  S
O18          C28   1.255       .  A
O18         Co21   1.970       .  S
O19          C26   1.271       .  A
O19         Co24   1.924       .  S
O20          C27   1.234       .  A
O20         Co23   1.938       .  S
Co21         O25   2.032   1_554  S
Co22        O440   2.058       .  S
Co23        O423   1.914       .  S
Co23        O430   2.048       .  S
Co23        O440   2.017       .  S
Co24        O422   2.073   1_554  S
Co24        O431   1.997   1_554  S
Co24         O25   2.021   1_554  S
O25        Co437   2.053       .  S
O25        Co438   2.013       .  S
C26         C356   1.440       .  S
C27         C323   1.427       .  S
C28         C332   1.486       .  S
C29         C344   1.473       .  S
O30          C38   1.273       .  A
O30        Co880   1.936       .  S
O31          C39   1.256       .  A
O31         Co51   1.973       .  S
O32          C40   1.294       .  A
O32        Co467   2.078       .  S
O33          C41   1.302       .  A
O33         Co53   2.127       .  S
O34          C40   1.272       .  A
O34        Co881   1.890       .  S
O35          C41   1.268       .  A
O35         Co50   1.903       .  S
O36          C39   1.275       .  A
O36        Co468   2.035       .  S
O37          C38   1.290       .  A
O37         Co52   2.070       .  S
C38         C272   1.507       .  S
C39         C224   1.488       .  S
C40         C284   1.474       .  S
C41         C236   1.508       .  S
O42          C55   1.292       .  A
O42         Co50   2.104       .  S
O43          C56   1.247       .  A
O43        Co881   1.980       .  S
O44          C57   1.259       .  A
O44         Co52   2.006       .  S
O45          C58   1.271       .  A
O45        Co468   1.996       .  S
O46          C58   1.276       .  A
O46         Co51   2.017       .  S
O47          C57   1.267       .  A
O47        Co880   1.975       .  S
O48          C55   1.273       .  A
O48         Co53   1.915       .  S
O49          C56   1.252       .  A
O49        Co467   2.018       .  S
Co50        O860   1.983   1_545  S
Co50        O877   2.008   1_545  S
Co50         O54   2.023   1_544  S
Co51        O864   1.956   1_545  S
Co51        O873   2.066   1_545  S
Co51        O469   2.034   1_545  S
Co52        O447   2.071   1_554  S
Co52        O464   2.020   1_554  S
Co52        O884   2.236       .  S
Co53        O451   2.030   1_554  S
Co53        O460   1.999   1_554  S
Co53         O54   2.016   1_544  S
O54        Co466   2.030   1_565  S
O54        Co882   2.019       .  S
C55         C251   1.497       .  S
C56         C296   1.497       .  S
C57         C311   1.462       .  S
C58         C260   1.504       .  S
O59          C67   1.268       .  A
O59         Co79   2.034       .  S
O60          C68   1.297       .  A
O60         Co80   2.088       .  S
O61          C69   1.278       .  A
O61         Co81   1.908       .  S
O62          C70   1.263       .  A
O62         Co82   1.994   1_655  S
O63          C69   1.298       .  A
O63        Co495   2.073       .  S
O64          C70   1.275       .  A
O64        Co494   2.032       .  S
O65          C68   1.277       .  A
O65         Co82   1.908       .  S
O66          C67   1.260       .  A
O66         Co81   2.000   1_655  S
C67         C212   1.507       .  S
C68         C143   1.496       .  S
C69         C128   1.481       .  S
C70         C203   1.510       .  S
O71          C84   1.255       .  A
O71        Co494   1.957       .  S
O72          C85   1.259       .  A
O72        Co495   2.038       .  S
O73          C86   1.275       .  A
O73         Co81   2.035   1_655  S
O74          C87   1.245       .  A
O74         Co82   1.971       .  S
O75          C87   1.262       .  A
O75         Co80   2.015       .  S
O76          C86   1.254       .  A
O76         Co79   1.947       .  S
O77          C84   1.276       .  A
O77         Co82   2.045   1_655  S
O78          C85   1.241       .  A
O78         Co81   1.982       .  S
Co79        O479   2.035   1_554  S
Co79        O486   1.958   1_554  S
Co79         O83   2.055   1_655  S
Co80        O478   2.061       .  S
Co80        O487   2.038       .  S
Co80        O498   2.217       .  S
Co81         O83   1.972       .  S
Co82        O498   1.974       .  S
O83        Co495   2.218       .  S
O83        Co497   1.970   1_554  S
C84         C191   1.497       .  S
C85         C164   1.504       .  S
C86         C179   1.461       .  S
C87         C155   1.505       .  S
C88          H89   1.106       .  S
C88          C94   1.547       .  S
C88          C93   1.546       .  S
C88          C92   1.538       .  S
C90          H91   1.080       .  S
C90          C96   1.558       .  S
C90          C95   1.529       .  S
C90          C97   1.551       .  S
C92          C95   1.388       .  D
C92         C392   1.489       .  S
C93          C96   1.400       .  D
C93         C263   1.515       .  S
C94          C97   1.386       .  D
C94         C152   1.532       .  S
C95         C404   1.493       .  S
C96         C248   1.546       .  S
C97         C167   1.517       .  S
C98          H99   1.095       .  S
C98         C104   1.549       .  S
C98         C103   1.554       .  S
C98         C102   1.556       .  S
C100        H101   1.110       .  S
C100        C106   1.551       .  S
C100        C105   1.541       .  S
C100        C107   1.542       .  S
C102        C105   1.400       .  D
C102        C383   1.515       .  S
C103        C106   1.392       .  D
C103        C239   1.548       .  S
C104        C107   1.379       .  D
C104        C176   1.512       .  S
C105        C371   1.511       .  S
C106        C227   1.508       .  S
C107        C188   1.507       .  S
C108        H109   1.093       .  S
C108        C114   1.556       .  S
C108        C113   1.539       .  S
C108        C112   1.549       .  S
C110        H111   1.104       .  S
C110        C116   1.565       .  S
C110        C115   1.549       .  S
C110        C117   1.547       .  S
C112        C115   1.403       .  D
C112        C335   1.559       .  S
C113        C116   1.393       .  D
C113        C308   1.494       .  S
C114        C117   1.383       .  D
C114        C131   1.520       .  S
C115        C320   1.461       .  S
C116        C299   1.566       .  S
C117        C140   1.527       .  S
C118        H119   1.094       .  S
C118        C124   1.570       .  S
C118        C123   1.551       .  S
C118        C122   1.536       .  S
C120        H121   1.094       .  S
C120        C126   1.556       .  S
C120        C125   1.553       .  S
C120        C127   1.526       .  S
C122        C125   1.385       .  D
C122        C347   1.537       .  S
C123        C126   1.395       .  D
C123        C287   1.506       .  S
C124        C127   1.383       .  D
C124        C200   1.526       .  S
C125        C359   1.466       .  S
C126        C275   1.548       .  S
C127        C215   1.518       .  S
C128        C129   1.409       .  A
C128        C133   1.411       .  A
C129        C130   1.414       .  A
C129        H138   1.084       .  S
C130        C131   1.420       .  A
C130        S134   1.800       .  S
C131        C132   1.404       .  A
C132        C133   1.386       .  A
C132        H139   1.066       .  S
C133        S135   1.810       .  S
S134        H137   1.406       .  S
S135        H136   1.398       .  S
C140        C141   1.412       .  A
C140        C145   1.418       .  A
C141        C142   1.402       .  A
C141        H150   1.076       .  S
C142        C143   1.406       .  A
C142        S146   1.797       .  S
C143        C144   1.408       .  A
C144        C145   1.412       .  A
C144        H151   1.084       .  S
C145        S147   1.797       .  S
S146        H149   1.407       .  S
S147        H148   1.404       .  S
C152        C153   1.409       .  A
C152        C157   1.434       .  A
C153        C154   1.408       .  A
C153        H162   1.084       .  S
C154        C155   1.420       .  A
C154        S158   1.796       .  S
C155        C156   1.397       .  A
C156        C157   1.405       .  A
C156        H163   1.083       .  S
C157        S159   1.795       .  S
S158        H161   1.407       .  S
S159        H160   1.407       .  S
C164        C165   1.411       .  A
C164        C169   1.414       .  A
C165        C166   1.417       .  A
C165        H174   1.083       .  S
C166        C167   1.417       .  A
C166        S170   1.801       .  S
C167        C168   1.405       .  A
C168        C169   1.406       .  A
C168        H175   1.078       .  S
C169        S171   1.795       .  S
S170        H173   1.405       .  S
S171        H172   1.404       .  S
C176        C177   1.404       .  A
C176        C181   1.423       .  A
C177        C178   1.384       .  A
C177        H186   1.069       .  S
C178        C179   1.403       .  A
C178        S182   1.812       .  S
C179        C180   1.405       .  A
C180        C181   1.411       .  A
C180        H187   1.084       .  S
C181        S183   1.803       .  S
S182        H185   1.407       .  S
S183        H184   1.406       .  S
C188        C189   1.415       .  A
C188        C193   1.407       .  A
C189        C190   1.409       .  A
C189        H198   1.082       .  S
C190        C191   1.409       .  A
C190        S194   1.802       .  S
C191        C192   1.414       .  A
C192        C193   1.401       .  A
C192        H199   1.084       .  S
C193        S195   1.804       .  S
S194        H197   1.407       .  S
S195        H196   1.405       .  S
C200        C201   1.405       .  A
C200        C205   1.427       .  A
C201        C202   1.416       .  A
C201        H210   1.082       .  S
C202        C203   1.423       .  A
C202        S206   1.792       .  S
C203        C204   1.395       .  A
C204        C205   1.403       .  A
C204        H211   1.083       .  S
C205        S207   1.790       .  S
S206        H209   1.405       .  S
S207        H208   1.407       .  S
C212        C213   1.409       .  A
C212        C217   1.416       .  A
C213        C214   1.411       .  A
C213        H222   1.083       .  S
C214        C215   1.412       .  A
C214        S218   1.794       .  S
C215        C216   1.412       .  A
C216        C217   1.417       .  A
C216        H223   1.084       .  S
C217        S219   1.801       .  S
S218        H221   1.406       .  S
S219        H220   1.407       .  S
C224        C225   1.398       .  A
C224        C229   1.420       .  A
C225        C226   1.404       .  A
C225        H234   1.083       .  S
C226        C227   1.415       .  A
C226        S230   1.787       .  S
C227        C228   1.407       .  A
C228        C229   1.410       .  A
C228        H235   1.083       .  S
C229        S231   1.806       .  S
S230        H233   1.406       .  S
S231        H232   1.403       .  S
C236        C237   1.413       .  A
C236        C241   1.412       .  A
C237        C238   1.416       .  A
C237        H246   1.083       .  S
C238        C239   1.421       .  A
C238        S242   1.798       .  S
C239        C240   1.416       .  A
C240        C241   1.399       .  A
C240        H247   1.071       .  S
C241        S243   1.804       .  S
S242        H245   1.407       .  S
S243        H244   1.408       .  S
C248        C249   1.408       .  A
C248        C253   1.424       .  A
C249        C250   1.409       .  A
C249        H258   1.078       .  S
C250        C251   1.421       .  A
C250        S254   1.802       .  S
C251        C252   1.402       .  A
C252        C253   1.406       .  A
C252        H259   1.084       .  S
C253        S255   1.803       .  S
S254        H257   1.406       .  S
S255        H256   1.408       .  S
C260        C261   1.403       .  A
C260        C265   1.418       .  A
C261        C262   1.397       .  A
C261        H270   1.084       .  S
C262        C263   1.429       .  A
C262        S266   1.806       .  S
C263        C264   1.410       .  A
C264        C265   1.415       .  A
C264        H271   1.084       .  S
C265        S267   1.800       .  S
S266        H269   1.385       .  S
S267        H268   1.407       .  S
C272        C273   1.408       .  A
C272        C277   1.409       .  A
C273        C274   1.416       .  A
C273        H282   1.083       .  S
C274        C275   1.427       .  A
C274        S278   1.803       .  S
C275        C276   1.411       .  A
C276        C277   1.407       .  A
C276        H283   1.082       .  S
C277        S279   1.781       .  S
S278        H281   1.405       .  S
S279        H280   1.406       .  S
C284        C285   1.390       .  A
C284        C289   1.416       .  A
C285        C286   1.392       .  A
C285        H294   1.079       .  S
C286        C287   1.428       .  A
C286        S290   1.806       .  S
C287        C288   1.403       .  A
C288        C289   1.403       .  A
C288        H295   1.084       .  S
C289        S291   1.800       .  S
S290        H293   1.407       .  S
S291        H292   1.398       .  S
C296        C297   1.403       .  A
C296        C301   1.401       .  A
C297        C298   1.421       .  A
C297        H306   1.084       .  S
C298        C299   1.434       .  A
C298        S302   1.789       .  S
C299        C300   1.416       .  A
C300        C301   1.400       .  A
C300        H307   1.062       .  S
C301        S303   1.804       .  S
S302        H305   1.406       .  S
S303        H304   1.405       .  S
C308        C309   1.404       .  A
C308        C313   1.428       .  A
C309        C310   1.405       .  A
C309        H318   1.084       .  S
C310        C311   1.412       .  A
C310        S314   1.803       .  S
C311        C312   1.388       .  A
C312        C313   1.390       .  A
C312        H319   1.085       .  S
C313        S315   1.801       .  S
S314        H317   1.406       .  S
S315        H316   1.408       .  S
C320        C321   1.403       .  A
C320        C325   1.411       .  A
C321        C322   1.384       .  A
C321        H330   1.080       .  S
C322        C323   1.399       .  A
C322        S326   1.799       .  S
C323        C324   1.390       .  A
C324        C325   1.381       .  A
C324        H331   1.084       .  S
C325        S327   1.799       .  S
S326        H329   1.406       .  S
S327        H328   1.407       .  S
C332        C333   1.395       .  A
C332        C337   1.405       .  A
C333        C334   1.414       .  A
C333        H342   1.083       .  S
C334        C335   1.441       .  A
C334        S338   1.808       .  S
C335        C336   1.413       .  A
C336        C337   1.402       .  A
C336        H343   1.070       .  S
C337        S339   1.804       .  S
S338        H341   1.407       .  S
S339        H340   1.407       .  S
C344        C345   1.397       .  A
C344        C349   1.412       .  A
C345        C346   1.400       .  A
C345        H354   1.082       .  S
C346        C347   1.426       .  A
C346        S350   1.801       .  S
C347        C348   1.410       .  A
C348        C349   1.396       .  A
C348        H355   1.072       .  S
C349        S351   1.809       .  S
S350        H353   1.408       .  S
S351        H352   1.407       .  S
C356        C357   1.392       .  A
C356        C361   1.406       .  A
C357        C358   1.394       .  A
C357        H366   1.084       .  S
C358        C359   1.417       .  A
C358        S362   1.798       .  S
C359        C360   1.394       .  A
C360        C361   1.381       .  A
C360        H367   1.078       .  S
C361        S363   1.811       .  S
S362        H365   1.405       .  S
S363        H364   1.407       .  S
C368        C369   1.407       .  A
C368        C373   1.404       .  A
C369        C370   1.388       .  A
C369        H378   1.078       .  S
C370        C371   1.400       .  A
C370        S374   1.783       .  S
C371        C372   1.424       .  A
C372        C373   1.409       .  A
C372        H379   1.076       .  S
C373        S375   1.800       .  S
S374        H377   1.406       .  S
S375        H376   1.406       .  S
C380        C381   1.394       .  A
C380        C385   1.419       .  A
C381        C382   1.399       .  A
C381        H390   1.083       .  S
C382        C383   1.417       .  A
C382        S386   1.792       .  S
C383        C384   1.408       .  A
C384        C385   1.419       .  A
C384        H391   1.083       .  S
C385        S387   1.803       .  S
S386        H389   1.405       .  S
S387        H388   1.406       .  S
C392        C393   1.410       .  A
C392        C397   1.417       .  A
C393        C394   1.391       .  A
C393        H402   1.077       .  S
C394        C395   1.398       .  A
C394        S398   1.802       .  S
C395        C396   1.395       .  A
C396        C397   1.390       .  A
C396        H403   1.084       .  S
C397        S399   1.800       .  S
S398        H401   1.407       .  S
S399        H400   1.407       .  S
C404        C405   1.405       .  A
C404        C409   1.422       .  A
C405        C406   1.387       .  A
C405        H414   1.073       .  S
C406        C407   1.384       .  A
C406        S410   1.783       .  S
C407        C408   1.397       .  A
C408        C409   1.393       .  A
C408        H415   1.084       .  S
C409        S411   1.802       .  S
S410        H413   1.404       .  S
S411        H412   1.407       .  S
O416        C424   1.274       .  A
O416       Co436   2.028       .  S
O417        C425   1.246       .  A
O417       Co437   1.961       .  S
O418        C426   1.289       .  A
O418       Co438   2.033       .  S
O419        C427   1.280       .  A
O419       Co439   2.065       .  S
O420        C426   1.269       .  A
O420       Co437   1.943       .  S
O421        C427   1.244       .  A
O421       Co436   1.967       .  S
O422        C425   1.281       .  A
O423        C424   1.244       .  A
C424        C822   1.446       .  S
C425        C783   1.490       .  S
C426        C810   1.447       .  S
C427        C795   1.487       .  S
O428        C441   1.277       .  A
O428       Co436   1.967       .  S
O429        C442   1.240       .  A
O429       Co437   1.974       .  S
O430        C443   1.272       .  A
O431        C444   1.271       .  A
O432        C444   1.258       .  A
O432       Co437   1.973       .  S
O433        C443   1.256       .  A
O433       Co436   1.971       .  S
O434        C441   1.272       .  A
O434       Co439   1.927       .  S
O435        C442   1.234       .  A
O435       Co438   1.939       .  S
Co436       O440   2.028       .  S
Co439       O440   2.022       .  S
C441        C771   1.440       .  S
C442        C738   1.426       .  S
C443        C747   1.486       .  S
C444        C759   1.471       .  S
O445        C453   1.275       .  A
O445      Co1295   1.936       .  S
O446        C454   1.257       .  A
O446       Co466   1.970       .  S
O447        C455   1.292       .  A
O448        C456   1.301       .  A
O448       Co468   2.125       .  S
O449        C455   1.272       .  A
O449      Co1296   1.891       .  S
O450        C456   1.268       .  A
O450       Co465   1.904       .  S
O451        C454   1.273       .  A
O452        C453   1.290       .  A
O452       Co467   2.061       .  S
C453        C687   1.501       .  S
C454        C639   1.486       .  S
C455        C699   1.470       .  S
C456        C651   1.508       .  S
O457        C470   1.294       .  A
O457       Co465   2.109       .  S
O458        C471   1.249       .  A
O458      Co1296   1.989       .  S
O459        C472   1.260       .  A
O459       Co467   2.006       .  S
O460        C473   1.272       .  A
O461        C473   1.277       .  A
O461       Co466   2.018       .  S
O462        C472   1.267       .  A
O462      Co1295   1.973       .  S
O463        C470   1.273       .  A
O463       Co468   1.915       .  S
O464        C471   1.253       .  A
Co465      O1275   1.985   1_545  S
Co465      O1292   2.007   1_545  S
Co465       O469   2.025   1_545  S
Co466      O1279   1.959   1_545  S
Co466      O1288   2.057   1_545  S
Co467      O1299   2.234       .  S
Co468       O469   2.018   1_545  S
O469      Co1297   2.022       .  S
C470        C666   1.502       .  S
C471        C711   1.504       .  S
C472        C726   1.461       .  S
C473        C675   1.507       .  S
O474        C482   1.269       .  A
O474       Co494   2.037       .  S
O475        C483   1.298       .  A
O475       Co495   2.089   1_556  S
O476        C484   1.279       .  A
O476       Co496   1.909       .  S
O477        C485   1.263       .  A
O477       Co497   1.994   1_655  S
O478        C484   1.295       .  A
O479        C485   1.276       .  A
O480        C483   1.277       .  A
O480       Co497   1.908       .  S
O481        C482   1.260       .  A
O481       Co496   2.002   1_655  S
C482        C627   1.512       .  S
C483        C558   1.497       .  S
C484        C543   1.474       .  S
C485        C618   1.511       .  S
O486        C499   1.255       .  A
O487        C500   1.258       .  A
O488        C501   1.275       .  A
O488       Co496   2.031   1_655  S
O489        C502   1.244       .  A
O489       Co497   1.969       .  S
O490        C502   1.262       .  A
O490       Co495   2.015   1_556  S
O491        C501   1.255       .  A
O491       Co494   1.950       .  S
O492        C499   1.276       .  A
O492       Co497   2.044   1_655  S
O493        C500   1.240       .  A
O493       Co496   1.983       .  S
Co494       O498   2.056   1_655  S
Co496       O498   1.975       .  S
C499        C606   1.496       .  S
C500        C579   1.505       .  S
C501        C594   1.461       .  S
C502        C570   1.504       .  S
C503        H504   1.106       .  S
C503        C509   1.545       .  S
C503        C508   1.546       .  S
C503        C507   1.540       .  S
C505        H506   1.080       .  S
C505        C511   1.561       .  S
C505        C510   1.531       .  S
C505        C512   1.554       .  S
C507        C510   1.387       .  D
C507        C807   1.491       .  S
C508        C511   1.402       .  D
C508        C678   1.516       .  S
C509        C512   1.385       .  D
C509        C567   1.533       .  S
C510        C819   1.495       .  S
C511        C663   1.549       .  S
C512        C582   1.517       .  S
C513        H514   1.094       .  S
C513        C519   1.547       .  S
C513        C518   1.553       .  S
C513        C517   1.556       .  S
C515        H516   1.110       .  S
C515        C521   1.551       .  S
C515        C520   1.543       .  S
C515        C522   1.542       .  S
C517        C520   1.398       .  D
C517        C798   1.508       .  S
C518        C521   1.392       .  D
C518        C654   1.552       .  S
C519        C522   1.380       .  D
C519        C591   1.514       .  S
C520        C786   1.516       .  S
C521        C642   1.502       .  S
C522        C603   1.503       .  S
C523        H524   1.093       .  S
C523        C529   1.554       .  S
C523        C528   1.539       .  S
C523        C527   1.550       .  S
C525        H526   1.103       .  S
C525        C531   1.566       .  S
C525        C530   1.550       .  S
C525        C532   1.548       .  S
C527        C530   1.403       .  D
C527        C750   1.560       .  S
C528        C531   1.392       .  D
C528        C723   1.489       .  S
C529        C532   1.382       .  D
C529        C546   1.516       .  S
C530        C735   1.461       .  S
C531        C714   1.571       .  S
C532        C555   1.526       .  S
C533        H534   1.093       .  S
C533        C539   1.569       .  S
C533        C538   1.549       .  S
C533        C537   1.535       .  S
C535        H536   1.094       .  S
C535        C541   1.556       .  S
C535        C540   1.556       .  S
C535        C542   1.526       .  S
C537        C540   1.386       .  D
C537        C762   1.538       .  S
C538        C541   1.394       .  D
C538        C702   1.506       .  S
C539        C542   1.383       .  D
C539        C615   1.526       .  S
C540        C774   1.468       .  S
C541        C690   1.548       .  S
C542        C630   1.519       .  S
C543        C544   1.407       .  A
C543        C548   1.411       .  A
C544        C545   1.412       .  A
C544        H553   1.084       .  S
C545        C546   1.419       .  A
C545        S549   1.800       .  S
C546        C547   1.404       .  A
C547        C548   1.384       .  A
C547        H554   1.069       .  S
C548        S550   1.810       .  S
S549        H552   1.407       .  S
S550        H551   1.397       .  S
C555        C556   1.412       .  A
C555        C560   1.418       .  A
C556        C557   1.402       .  A
C556        H565   1.077       .  S
C557        C558   1.406       .  A
C557        S561   1.797       .  S
C558        C559   1.408       .  A
C559        C560   1.413       .  A
C559        H566   1.084       .  S
C560        S562   1.798       .  S
S561        H564   1.407       .  S
S562        H563   1.404       .  S
C567        C568   1.410       .  A
C567        C572   1.433       .  A
C568        C569   1.409       .  A
C568        H577   1.083       .  S
C569        C570   1.420       .  A
C569        S573   1.796       .  S
C570        C571   1.395       .  A
C571        C572   1.403       .  A
C571        H578   1.082       .  S
C572        S574   1.793       .  S
S573        H576   1.408       .  S
S574        H575   1.407       .  S
C579        C580   1.411       .  A
C579        C584   1.414       .  A
C580        C581   1.417       .  A
C580        H589   1.083       .  S
C581        C582   1.417       .  A
C581        S585   1.801       .  S
C582        C583   1.405       .  A
C583        C584   1.406       .  A
C583        H590   1.078       .  S
C584        S586   1.795       .  S
S585        H588   1.406       .  S
S586        H587   1.404       .  S
C591        C592   1.405       .  A
C591        C596   1.422       .  A
C592        C593   1.383       .  A
C592        H601   1.068       .  S
C593        C594   1.401       .  A
C593        S597   1.811       .  S
C594        C595   1.405       .  A
C595        C596   1.411       .  A
C595        H602   1.084       .  S
C596        S598   1.803       .  S
S597        H600   1.407       .  S
S598        H599   1.406       .  S
C603        C604   1.413       .  A
C603        C608   1.408       .  A
C604        C605   1.407       .  A
C604        H613   1.082       .  S
C605        C606   1.409       .  A
C605        S609   1.801       .  S
C606        C607   1.414       .  A
C607        C608   1.402       .  A
C607        H614   1.084       .  S
C608        S610   1.805       .  S
S609        H612   1.407       .  S
S610        H611   1.405       .  S
C615        C616   1.404       .  A
C615        C620   1.428       .  A
C616        C617   1.415       .  A
C616        H625   1.082       .  S
C617        C618   1.423       .  A
C617        S621   1.792       .  S
C618        C619   1.397       .  A
C619        C620   1.405       .  A
C619        H626   1.083       .  S
C620        S622   1.792       .  S
S621        H624   1.406       .  S
S622        H623   1.406       .  S
C627        C628   1.410       .  A
C627        C632   1.418       .  A
C628        C629   1.412       .  A
C628        H637   1.083       .  S
C629        C630   1.411       .  A
C629        S633   1.794       .  S
C630        C631   1.412       .  A
C631        C632   1.419       .  A
C631        H638   1.083       .  S
C632        S634   1.801       .  S
S633        H636   1.404       .  S
S634        H635   1.406       .  S
C639        C640   1.400       .  A
C639        C644   1.419       .  A
C640        C641   1.404       .  A
C640        H649   1.083       .  S
C641        C642   1.415       .  A
C641        S645   1.792       .  S
C642        C643   1.405       .  A
C643        C644   1.407       .  A
C643        H650   1.083       .  S
C644        S646   1.805       .  S
S645        H648   1.406       .  S
S646        H647   1.403       .  S
C651        C652   1.412       .  A
C651        C656   1.411       .  A
C652        C653   1.417       .  A
C652        H661   1.083       .  S
C653        C654   1.423       .  A
C653        S657   1.796       .  S
C654        C655   1.417       .  A
C655        C656   1.399       .  A
C655        H662   1.071       .  S
C656        S658   1.805       .  S
S657        H660   1.407       .  S
S658        H659   1.408       .  S
C663        C664   1.409       .  A
C663        C668   1.426       .  A
C664        C665   1.411       .  A
C664        H673   1.078       .  S
C665        C666   1.422       .  A
C665        S669   1.802       .  S
C666        C667   1.402       .  A
C667        C668   1.407       .  A
C667        H674   1.084       .  S
C668        S670   1.803       .  S
S669        H672   1.406       .  S
S670        H671   1.408       .  S
C675        C676   1.404       .  A
C675        C680   1.418       .  A
C676        C677   1.398       .  A
C676        H685   1.084       .  S
C677        C678   1.428       .  A
C677        S681   1.806       .  S
C678        C679   1.411       .  A
C679        C680   1.416       .  A
C679        H686   1.084       .  S
C680        S682   1.800       .  S
S681        H684   1.384       .  S
S682        H683   1.407       .  S
C687        C688   1.407       .  A
C687        C692   1.407       .  A
C688        C689   1.414       .  A
C688        H697   1.083       .  S
C689        C690   1.425       .  A
C689        S693   1.803       .  S
C690        C691   1.412       .  A
C691        C692   1.410       .  A
C691        H698   1.080       .  S
C692        S694   1.791       .  S
S693        H696   1.405       .  S
S694        H695   1.407       .  S
C699        C700   1.389       .  A
C699        C704   1.415       .  A
C700        C701   1.392       .  A
C700        H709   1.079       .  S
C701        C702   1.429       .  A
C701        S705   1.805       .  S
C702        C703   1.402       .  A
C703        C704   1.402       .  A
C703        H710   1.084       .  S
C704        S706   1.799       .  S
S705        H708   1.408       .  S
S706        H707   1.400       .  S
C711        C712   1.405       .  A
C711        C716   1.402       .  A
C712        C713   1.423       .  A
C712        H721   1.084       .  S
C713        C714   1.435       .  A
C713        S717   1.790       .  S
C714        C715   1.418       .  A
C715        C716   1.403       .  A
C715        H722   1.061       .  S
C716        S718   1.804       .  S
S717        H720   1.405       .  S
S718        H719   1.405       .  S
C723        C724   1.404       .  A
C723        C728   1.427       .  A
C724        C725   1.403       .  A
C724        H733   1.084       .  S
C725        C726   1.412       .  A
C725        S729   1.803       .  S
C726        C727   1.389       .  A
C727        C728   1.389       .  A
C727        H734   1.084       .  S
C728        S730   1.801       .  S
S729        H732   1.406       .  S
S730        H731   1.408       .  S
C735        C736   1.404       .  A
C735        C740   1.411       .  A
C736        C737   1.385       .  A
C736        H745   1.080       .  S
C737        C738   1.399       .  A
C737        S741   1.800       .  S
C738        C739   1.389       .  A
C739        C740   1.381       .  A
C739        H746   1.084       .  S
C740        S742   1.800       .  S
S741        H744   1.407       .  S
S742        H743   1.406       .  S
C747        C748   1.394       .  A
C747        C752   1.405       .  A
C748        C749   1.413       .  A
C748        H757   1.083       .  S
C749        C750   1.442       .  A
C749        S753   1.806       .  S
C750        C751   1.414       .  A
C751        C752   1.403       .  A
C751        H758   1.068       .  S
C752        S754   1.805       .  S
S753        H756   1.408       .  S
S754        H755   1.407       .  S
C759        C760   1.396       .  A
C759        C764   1.411       .  A
C760        C761   1.399       .  A
C760        H769   1.082       .  S
C761        C762   1.428       .  A
C761        S765   1.802       .  S
C762        C763   1.412       .  A
C763        C764   1.396       .  A
C763        H770   1.071       .  S
C764        S766   1.811       .  S
S765        H768   1.408       .  S
S766        H767   1.407       .  S
C771        C772   1.392       .  A
C771        C776   1.406       .  A
C772        C773   1.394       .  A
C772        H781   1.084       .  S
C773        C774   1.417       .  A
C773        S777   1.798       .  S
C774        C775   1.395       .  A
C775        C776   1.381       .  A
C775        H782   1.078       .  S
C776        S778   1.811       .  S
S777        H780   1.405       .  S
S778        H779   1.407       .  S
C783        C784   1.405       .  A
C783        C788   1.404       .  A
C784        C785   1.388       .  A
C784        H793   1.079       .  S
C785        C786   1.405       .  A
C785        S789   1.780       .  S
C786        C787   1.425       .  A
C787        C788   1.410       .  A
C787        H794   1.077       .  S
C788        S790   1.801       .  S
S789        H792   1.408       .  S
S790        H791   1.407       .  S
C795        C796   1.396       .  A
C795        C800   1.419       .  A
C796        C797   1.399       .  A
C796        H805   1.083       .  S
C797        C798   1.414       .  A
C797        S801   1.795       .  S
C798        C799   1.407       .  A
C799        C800   1.418       .  A
C799        H806   1.083       .  S
C800        S802   1.804       .  S
S801        H804   1.405       .  S
S802        H803   1.404       .  S
C807        C808   1.411       .  A
C807        C812   1.418       .  A
C808        C809   1.393       .  A
C808        H817   1.078       .  S
C809        C810   1.400       .  A
C809        S813   1.803       .  S
C810        C811   1.395       .  A
C811        C812   1.390       .  A
C811        H818   1.084       .  S
C812        S814   1.800       .  S
S813        H816   1.406       .  S
S814        H815   1.405       .  S
C819        C820   1.404       .  A
C819        C824   1.424       .  A
C820        C821   1.387       .  A
C820        H829   1.074       .  S
C821        C822   1.385       .  A
C821        S825   1.781       .  S
C822        C823   1.397       .  A
C823        C824   1.396       .  A
C823        H830   1.083       .  S
C824        S826   1.802       .  S
S825        H828   1.405       .  S
S826        H827   1.407       .  S
O831        C839   1.272       .  A
O831       Co851   2.017       .  S
O832        C840   1.246       .  A
O832       Co852   1.954       .  S
O833        C841   1.286       .  A
O833       Co853   2.027       .  S
O834        C842   1.284       .  A
O834       Co854   2.086       .  S
O835        C841   1.268       .  A
O835       Co852   1.944       .  S
O836        C842   1.241       .  A
O836       Co851   1.974       .  S
O837        C840   1.281       .  A
O837      Co1269   2.057       .  S
O838        C839   1.242       .  A
O838      Co1268   1.912   1_554  S
C839       C1237   1.436       .  S
C840       C1198   1.478       .  S
C841       C1225   1.447       .  S
C842       C1210   1.495       .  S
O843        C856   1.283       .  A
O843       Co851   2.010       .  S
O844        C857   1.241       .  A
O844       Co852   1.966       .  S
O845        C858   1.272       .  A
O845      Co1268   2.037   1_554  S
O846        C859   1.270       .  A
O846      Co1269   1.983       .  S
O847        C859   1.259       .  A
O847       Co852   1.984       .  S
O848        C858   1.255       .  A
O848       Co851   1.961       .  S
O849        C856   1.272       .  A
O849       Co854   1.914       .  S
O850        C857   1.236       .  A
O850       Co853   1.946       .  S
Co851       O855   2.056   1_554  S
Co852      O1270   2.065       .  S
Co853      O1253   1.911       .  S
Co853      O1260   2.038       .  S
Co853      O1270   2.005       .  S
Co854      O1252   2.064   1_554  S
Co854      O1261   1.986   1_554  S
Co854       O855   2.001   1_554  S
O855      Co1267   2.063       .  S
O855      Co1268   2.007       .  S
C856       C1186   1.479       .  S
C857       C1153   1.425       .  S
C858       C1162   1.471       .  S
C859       C1174   1.480       .  S
O860        C868   1.270       .  A
O861        C869   1.259       .  A
O861       Co881   2.018       .  S
O862        C870   1.278       .  A
O862      Co1297   2.047       .  S
O863        C871   1.257       .  A
O863       Co883   1.999       .  S
O864        C870   1.254       .  A
O865        C871   1.258       .  A
O865       Co880   1.993       .  S
O866        C869   1.257       .  A
O866      Co1298   1.979       .  S
O867        C868   1.289       .  A
O867       Co882   2.071   1_554  S
C868       C1102   1.528       .  S
C869       C1054   1.494       .  S
C870       C1114   1.490       .  S
C871       C1066   1.510       .  S
O872        C885   1.301       .  A
O872       Co880   2.093       .  S
O873        C886   1.281       .  A
O874        C887   1.244       .  A
O874       Co882   1.955   1_554  S
O875        C888   1.266       .  A
O875      Co1298   1.970       .  S
O876        C888   1.279       .  A
O876       Co881   2.016       .  S
O877        C887   1.264       .  A
O878        C885   1.263       .  A
O878       Co883   1.972       .  S
O879        C886   1.255       .  A
O879      Co1297   1.966       .  S
Co880       O884   1.952       .  S
Co881      O1299   1.938       .  S
Co882      O1277   2.045       .  S
Co882      O1294   1.970       .  S
Co883      O1281   1.985   1_554  S
Co883      O1290   1.978   1_554  S
Co883       O884   2.100       .  S
O884      Co1296   1.946   1_554  S
C885       C1081   1.509       .  S
C886       C1126   1.511       .  S
C887       C1141   1.451       .  S
C888       C1090   1.479       .  S
O889        C897   1.271       .  A
O889       Co909   2.044       .  S
O890        C898   1.300       .  A
O890       Co910   2.093       .  S
O891        C899   1.274       .  A
O891       Co911   1.902       .  S
O892        C900   1.262       .  A
O892       Co912   2.007   1_655  S
O893        C899   1.299       .  A
O893      Co1325   2.078       .  S
O894        C900   1.273       .  A
O894      Co1324   2.023       .  S
O895        C898   1.279       .  A
O895       Co912   1.912       .  S
O896        C897   1.256       .  A
O896       Co911   1.999   1_655  S
C897       C1042   1.501       .  S
C898        C973   1.501       .  S
C899        C958   1.479       .  S
C900       C1033   1.523       .  S
O901        C914   1.254       .  A
O901      Co1324   1.963       .  S
O902        C915   1.260       .  A
O902      Co1325   2.039       .  S
O903        C916   1.273       .  A
O903       Co911   2.032   1_655  S
O904        C917   1.246       .  A
O904       Co912   1.986       .  S
O905        C917   1.260       .  A
O905       Co910   2.018       .  S
O906        C916   1.251       .  A
O906       Co909   1.953       .  S
O907        C914   1.279       .  A
O907       Co912   2.046   1_655  S
O908        C915   1.243       .  A
O908       Co911   1.985       .  S
Co909      O1309   2.020   1_554  S
Co909      O1316   1.954   1_554  S
Co909       O913   2.071   1_655  S
Co910      O1308   2.078       .  S
Co910      O1317   2.033       .  S
Co910      O1328   2.218       .  S
Co911       O913   1.968       .  S
Co912      O1328   1.974       .  S
O913      Co1325   2.218       .  S
O913      Co1327   1.977   1_554  S
C914       C1021   1.483       .  S
C915        C994   1.505       .  S
C916       C1009   1.465       .  S
C917        C985   1.514       .  S
C918        H919   1.099       .  S
C918        C924   1.549       .  S
C918        C923   1.541       .  S
C918        C922   1.534       .  S
C920        H921   1.082       .  S
C920        C926   1.565       .  S
C920        C925   1.537       .  S
C920        C927   1.559       .  S
C922        C925   1.386       .  D
C922       C1222   1.491       .  S
C923        C926   1.389       .  D
C923       C1093   1.507       .  S
C924        C927   1.394       .  D
C924        C982   1.548       .  S
C925       C1234   1.490       .  S
C926       C1078   1.549       .  S
C927        C997   1.523       .  S
C928        H929   1.101       .  S
C928        C934   1.551       .  S
C928        C933   1.564       .  S
C928        C932   1.550       .  S
C930        H931   1.108       .  S
C930        C936   1.539       .  S
C930        C935   1.556       .  S
C930        C937   1.539       .  S
C932        C935   1.408       .  D
C932       C1213   1.529       .  S
C933        C936   1.395       .  D
C933       C1069   1.540       .  S
C934        C937   1.370       .  D
C934       C1006   1.496       .  S
C935       C1201   1.514       .  S
C936       C1057   1.510       .  S
C937       C1018   1.509       .  S
C938        H939   1.089       .  S
C938        C944   1.562       .  S
C938        C943   1.531       .  S
C938        C942   1.548       .  S
C940        H941   1.110       .  S
C940        C946   1.555       .  S
C940        C945   1.547       .  S
C940        C947   1.553       .  S
C942        C945   1.409       .  D
C942       C1165   1.555       .  S
C943        C946   1.367       .  D
C943       C1138   1.486       .  S
C944        C947   1.391       .  D
C944        C961   1.526       .  S
C945       C1150   1.458       .  S
C946       C1129   1.544       .  S
C947        C970   1.537       .  S
C948        H949   1.089       .  S
C948        C954   1.562       .  S
C948        C953   1.541       .  S
C948        C952   1.530       .  S
C950        H951   1.098       .  S
C950        C956   1.564       .  S
C950        C955   1.575       .  S
C950        C957   1.561       .  S
C952        C955   1.409       .  D
C952       C1177   1.530       .  S
C953        C956   1.380       .  D
C953       C1117   1.508       .  S
C954        C957   1.391       .  D
C954       C1030   1.533       .  S
C955       C1189   1.525       .  S
C956       C1105   1.551       .  S
C957       C1045   1.539       .  S
C958        C959   1.412       .  A
C958        C963   1.406       .  A
C959        C960   1.417       .  A
C959        H968   1.084       .  S
C960        C961   1.423       .  A
C960        S964   1.802       .  S
C961        C962   1.404       .  A
C962        C963   1.382       .  A
C962        H969   1.059       .  S
C963        S965   1.811       .  S
S964        H967   1.406       .  S
S965        H966   1.401       .  S
C970        C971   1.415       .  A
C970        C975   1.418       .  A
C971        C972   1.404       .  A
C971        H980   1.076       .  S
C972        C973   1.408       .  A
C972        S976   1.797       .  S
C973        C974   1.409       .  A
C974        C975   1.413       .  A
C974        H981   1.084       .  S
C975        S977   1.792       .  S
S976        H979   1.407       .  S
S977        H978   1.406       .  S
C982        C983   1.413       .  A
C982        C987   1.439       .  A
C983        C984   1.409       .  A
C983        H992   1.082       .  S
C984        C985   1.420       .  A
C984        S988   1.795       .  S
C985        C986   1.399       .  A
C986        C987   1.409       .  A
C986        H993   1.083       .  S
C987        S989   1.798       .  S
S988        H991   1.408       .  S
S989        H990   1.407       .  S
C994        C995   1.412       .  A
C994        C999   1.412       .  A
C995        C996   1.420       .  A
C995       H1004   1.083       .  S
C996        C997   1.419       .  A
C996       S1000   1.803       .  S
C997        C998   1.406       .  A
C998        C999   1.405       .  A
C998       H1005   1.077       .  S
C999       S1001   1.798       .  S
S1000      H1003   1.404       .  S
S1001      H1002   1.403       .  S
C1006      C1007   1.395       .  A
C1006      C1011   1.412       .  A
C1007      C1008   1.384       .  A
C1007      H1016   1.061       .  S
C1008      C1009   1.396       .  A
C1008      S1012   1.794       .  S
C1009      C1010   1.411       .  A
C1010      C1011   1.411       .  A
C1010      H1017   1.083       .  S
C1011      S1013   1.803       .  S
S1012      H1015   1.406       .  S
S1013      H1014   1.404       .  S
C1018      C1019   1.408       .  A
C1018      C1023   1.411       .  A
C1019      C1020   1.393       .  A
C1019      H1028   1.076       .  S
C1020      C1021   1.402       .  A
C1020      S1024   1.793       .  S
C1021      C1022   1.411       .  A
C1022      C1023   1.410       .  A
C1022      H1029   1.084       .  S
C1023      S1025   1.801       .  S
S1024      H1027   1.405       .  S
S1025      H1026   1.405       .  S
C1030      C1031   1.411       .  A
C1030      C1035   1.434       .  A
C1031      C1032   1.424       .  A
C1031      H1040   1.083       .  S
C1032      C1033   1.426       .  A
C1032      S1036   1.794       .  S
C1033      C1034   1.399       .  A
C1034      C1035   1.400       .  A
C1034      H1041   1.081       .  S
C1035      S1037   1.808       .  S
S1036      H1039   1.406       .  S
S1037      H1038   1.407       .  S
C1042      C1043   1.394       .  A
C1042      C1047   1.415       .  A
C1043      C1044   1.401       .  A
C1043      H1052   1.083       .  S
C1044      C1045   1.428       .  A
C1044      S1048   1.776       .  S
C1045      C1046   1.421       .  A
C1046      C1047   1.423       .  A
C1046      H1053   1.083       .  S
C1047      S1049   1.802       .  S
S1048      H1051   1.404       .  S
S1049      H1050   1.404       .  S
C1054      C1055   1.401       .  A
C1054      C1059   1.420       .  A
C1055      C1056   1.393       .  A
C1055      H1064   1.083       .  S
C1056      C1057   1.409       .  A
C1056      S1060   1.786       .  S
C1057      C1058   1.414       .  A
C1058      C1059   1.418       .  A
C1058      H1065   1.083       .  S
C1059      S1061   1.802       .  S
S1060      H1063   1.407       .  S
S1061      H1062   1.402       .  S
C1066      C1067   1.409       .  A
C1066      C1071   1.423       .  A
C1067      C1068   1.410       .  A
C1067      H1076   1.080       .  S
C1068      C1069   1.412       .  A
C1068      S1072   1.799       .  S
C1069      C1070   1.413       .  A
C1070      C1071   1.406       .  A
C1070      H1077   1.074       .  S
C1071      S1073   1.803       .  S
S1072      H1075   1.408       .  S
S1073      H1074   1.406       .  S
C1078      C1079   1.415       .  A
C1078      C1083   1.418       .  A
C1079      C1080   1.416       .  A
C1079      H1088   1.081       .  S
C1080      C1081   1.414       .  A
C1080      S1084   1.785       .  S
C1081      C1082   1.409       .  A
C1082      C1083   1.402       .  A
C1082      H1089   1.084       .  S
C1083      S1085   1.801       .  S
S1084      H1087   1.407       .  S
S1085      H1086   1.408       .  S
C1090      C1091   1.391       .  A
C1090      C1095   1.415       .  A
C1091      C1092   1.393       .  A
C1091      H1100   1.085       .  S
C1092      C1093   1.433       .  A
C1092      S1096   1.799       .  S
C1093      C1094   1.405       .  A
C1094      C1095   1.405       .  A
C1094      H1101   1.084       .  S
C1095      S1097   1.803       .  S
S1096      H1099   1.380       .  S
S1097      H1098   1.408       .  S
C1102      C1103   1.402       .  A
C1102      C1107   1.426       .  A
C1103      C1104   1.416       .  A
C1103      H1112   1.082       .  S
C1104      C1105   1.433       .  A
C1104      S1108   1.796       .  S
C1105      C1106   1.412       .  A
C1106      C1107   1.419       .  A
C1106      H1113   1.083       .  S
C1107      S1109   1.796       .  S
S1108      H1111   1.407       .  S
S1109      H1110   1.407       .  S
C1114      C1115   1.397       .  A
C1114      C1119   1.416       .  A
C1115      C1116   1.401       .  A
C1115      H1124   1.082       .  S
C1116      C1117   1.426       .  A
C1116      S1120   1.801       .  S
C1117      C1118   1.409       .  A
C1118      C1119   1.408       .  A
C1118      H1125   1.084       .  S
C1119      S1121   1.803       .  S
S1120      H1123   1.383       .  S
S1121      H1122   1.407       .  S
C1126      C1127   1.418       .  A
C1126      C1131   1.404       .  A
C1127      C1128   1.421       .  A
C1127      H1136   1.083       .  S
C1128      C1129   1.417       .  A
C1128      S1132   1.793       .  S
C1129      C1130   1.413       .  A
C1130      C1131   1.399       .  A
C1130      H1137   1.057       .  S
C1131      S1133   1.799       .  S
S1132      H1135   1.406       .  S
S1133      H1134   1.407       .  S
C1138      C1139   1.400       .  A
C1138      C1143   1.431       .  A
C1139      C1140   1.398       .  A
C1139      H1148   1.084       .  S
C1140      C1141   1.415       .  A
C1140      S1144   1.803       .  S
C1141      C1142   1.387       .  A
C1142      C1143   1.384       .  A
C1142      H1149   1.086       .  S
C1143      S1145   1.806       .  S
S1144      H1147   1.398   1_565  S
S1145      H1146   1.397       .  S
C1150      C1151   1.402       .  A
C1150      C1155   1.411       .  A
C1151      C1152   1.382       .  A
C1151      H1160   1.080       .  S
C1152      C1153   1.400       .  A
C1152      S1156   1.805       .  S
C1153      C1154   1.393       .  A
C1154      C1155   1.385       .  A
C1154      H1161   1.084       .  S
C1155      S1157   1.805       .  S
S1156      H1159   1.407       .  S
S1157      H1158   1.407       .  S
C1162      C1163   1.389       .  A
C1162      C1167   1.399       .  A
C1163      C1164   1.407       .  A
C1163      H1172   1.083       .  S
C1164      C1165   1.447       .  A
C1164      S1168   1.812       .  S
C1165      C1166   1.413       .  A
C1166      C1167   1.400       .  A
C1166      H1173   1.069       .  S
C1167      S1169   1.802       .  S
S1168      H1171   1.407       .  S
S1169      H1170   1.407       .  S
C1174      C1175   1.393       .  A
C1174      C1179   1.410       .  A
C1175      C1176   1.398       .  A
C1175      H1184   1.083       .  S
C1176      C1177   1.443       .  A
C1176      S1180   1.816       .  S
C1177      C1178   1.412       .  A
C1178      C1179   1.398       .  A
C1178      H1185   1.079       .  S
C1179      S1181   1.799       .  S
S1180      H1183   1.406       .  S
S1181      H1182   1.402       .  S
C1186      C1187   1.395       .  A
C1186      C1191   1.410       .  A
C1187      C1188   1.370       .  A
C1187      H1196   1.082       .  S
C1188      C1189   1.413       .  A
C1188      S1192   1.794       .  S
C1189      C1190   1.414       .  A
C1190      C1191   1.413       .  A
C1190      H1197   1.077       .  S
C1191      S1193   1.786       .  S
S1192      H1195   1.408       .  S
S1193      H1194   1.406       .  S
C1198      C1199   1.404       .  A
C1198      C1203   1.396       .  A
C1199      C1200   1.389       .  A
C1199      H1208   1.072       .  S
C1200      C1201   1.404       .  A
C1200      S1204   1.788       .  S
C1201      C1202   1.427       .  A
C1202      C1203   1.398       .  A
C1202      H1209   1.074       .  S
C1203      S1205   1.801       .  S
S1204      H1207   1.406       .  S
S1205      H1206   1.407       .  S
C1210      C1211   1.396       .  A
C1210      C1215   1.409       .  A
C1211      C1212   1.407       .  A
C1211      H1220   1.083       .  S
C1212      C1213   1.424       .  A
C1212      S1216   1.790       .  S
C1213      C1214   1.408       .  A
C1214      C1215   1.413       .  A
C1214      H1221   1.072       .  S
C1215      S1217   1.792       .  S
S1216      H1219   1.404       .  S
S1217      H1218   1.404       .  S
C1222      C1223   1.409       .  A
C1222      C1227   1.418       .  A
C1223      C1224   1.394       .  A
C1223      H1232   1.078       .  S
C1224      C1225   1.401       .  A
C1224      S1228   1.803       .  S
C1225      C1226   1.393       .  A
C1226      C1227   1.390       .  A
C1226      H1233   1.084       .  S
C1227      S1229   1.797       .  S
S1228      H1231   1.406       .  S
S1229      H1230   1.402       .  S
C1234      C1235   1.407       .  A
C1234      C1239   1.420       .  A
C1235      C1236   1.382       .  A
C1235      H1244   1.069       .  S
C1236      C1237   1.384       .  A
C1236      S1240   1.788       .  S
C1237      C1238   1.397       .  A
C1238      C1239   1.391       .  A
C1238      H1245   1.083       .  S
C1239      S1241   1.802       .  S
S1240      H1243   1.406       .  S
S1241      H1242   1.407       .  S
O1246      C1254   1.271       .  A
O1246     Co1266   2.010       .  S
O1247      C1255   1.245       .  A
O1247     Co1267   1.955       .  S
O1248      C1256   1.286       .  A
O1248     Co1268   2.027       .  S
O1249      C1257   1.284       .  A
O1249     Co1269   2.091       .  S
O1250      C1256   1.264       .  A
O1250     Co1267   1.935       .  S
O1251      C1257   1.241       .  A
O1251     Co1266   1.974       .  S
O1252      C1255   1.282       .  A
O1253      C1254   1.242       .  A
C1254      C1652   1.433       .  S
C1255      C1613   1.482       .  S
C1256      C1640   1.441       .  S
C1257      C1625   1.497       .  S
O1258      C1271   1.280       .  A
O1258     Co1266   2.005       .  S
O1259      C1272   1.242       .  A
O1259     Co1267   1.972       .  S
O1260      C1273   1.271       .  A
O1261      C1274   1.271       .  A
O1262      C1274   1.259       .  A
O1262     Co1267   1.979       .  S
O1263      C1273   1.254       .  A
O1263     Co1266   1.964       .  S
O1264      C1271   1.271       .  A
O1264     Co1269   1.907       .  S
O1265      C1272   1.237       .  A
O1265     Co1268   1.949       .  S
Co1266     O1270   2.052       .  S
Co1269     O1270   1.999       .  S
C1271      C1601   1.475       .  S
C1272      C1568   1.431       .  S
C1273      C1577   1.472       .  S
C1274      C1589   1.479       .  S
O1275      C1283   1.270       .  A
O1276      C1284   1.260       .  A
O1276     Co1296   2.018       .  S
O1277      C1285   1.278       .  A
O1278      C1286   1.254       .  A
O1278     Co1298   1.989       .  S
O1279      C1285   1.256       .  A
O1280      C1286   1.259       .  A
O1280     Co1295   1.996       .  S
O1281      C1284   1.258       .  A
O1282      C1283   1.288       .  A
O1282     Co1297   2.063       .  S
C1283      C1517   1.526       .  S
C1284      C1469   1.496       .  S
C1285      C1529   1.489       .  S
C1286      C1481   1.505       .  S
O1287      C1300   1.300       .  A
O1287     Co1295   2.090       .  S
O1288      C1301   1.280       .  A
O1289      C1302   1.246       .  A
O1289     Co1297   1.960       .  S
O1290      C1303   1.267       .  A
O1291      C1303   1.278       .  A
O1291     Co1296   2.015       .  S
O1292      C1302   1.263       .  A
O1293      C1300   1.262       .  A
O1293     Co1298   1.972       .  S
O1294      C1301   1.254       .  A
Co1295     O1299   1.947       .  S
Co1298     O1299   2.094       .  S
C1300      C1496   1.507       .  S
C1301      C1541   1.506       .  S
C1302      C1556   1.456       .  S
C1303      C1505   1.482       .  S
O1304      C1312   1.270       .  A
O1304     Co1324   2.044       .  S
O1305      C1313   1.303       .  A
O1305     Co1325   2.104   1_556  S
O1306      C1314   1.275       .  A
O1306     Co1326   1.900       .  S
O1307      C1315   1.261       .  A
O1307     Co1327   2.004   1_655  S
O1308      C1314   1.298       .  A
O1309      C1315   1.272       .  A
O1310      C1313   1.281       .  A
O1310     Co1327   1.911       .  S
O1311      C1312   1.256       .  A
O1311     Co1326   1.999   1_655  S
C1312      C1457   1.505       .  S
C1313      C1388   1.509       .  S
C1314      C1373   1.482       .  S
C1315      C1448   1.522       .  S
O1316      C1329   1.252       .  A
O1317      C1330   1.260       .  A
O1318      C1331   1.278       .  A
O1318     Co1326   2.042   1_655  S
O1319      C1332   1.247       .  A
O1319     Co1327   1.981       .  S
O1320      C1332   1.259       .  A
O1320     Co1325   2.008   1_556  S
O1321      C1331   1.254       .  A
O1321     Co1324   1.960       .  S
O1322      C1329   1.284       .  A
O1322     Co1327   2.059   1_655  S
O1323      C1330   1.243       .  A
O1323     Co1326   1.978       .  S
Co1324     O1328   2.070   1_655  S
Co1326     O1328   1.971       .  S
C1329      C1436   1.488       .  S
C1330      C1409   1.500       .  S
C1331      C1424   1.474       .  S
C1332      C1400   1.512       .  S
C1333      H1334   1.103       .  S
C1333      C1339   1.544       .  S
C1333      C1338   1.540       .  S
C1333      C1337   1.533       .  S
C1335      H1336   1.080       .  S
C1335      C1341   1.563       .  S
C1335      C1340   1.535       .  S
C1335      C1342   1.555       .  S
C1337      C1340   1.386       .  D
C1337      C1637   1.487       .  S
C1338      C1341   1.391       .  D
C1338      C1508   1.509       .  S
C1339      C1342   1.390       .  D
C1339      C1397   1.537       .  S
C1340      C1649   1.488       .  S
C1341      C1493   1.546       .  S
C1342      C1412   1.521       .  S
C1343      H1344   1.101       .  S
C1343      C1349   1.552       .  S
C1343      C1348   1.566       .  S
C1343      C1347   1.552       .  S
C1345      H1346   1.109       .  S
C1345      C1351   1.538       .  S
C1345      C1350   1.554       .  S
C1345      C1352   1.538       .  S
C1347      C1350   1.405       .  D
C1347      C1628   1.531       .  S
C1348      C1351   1.395       .  D
C1348      C1484   1.535       .  S
C1349      C1352   1.371       .  D
C1349      C1421   1.505       .  S
C1350      C1616   1.512       .  S
C1351      C1472   1.514       .  S
C1352      C1433   1.500       .  S
C1353      H1354   1.089       .  S
C1353      C1359   1.561       .  S
C1353      C1358   1.527       .  S
C1353      C1357   1.547       .  S
C1355      H1356   1.110       .  S
C1355      C1361   1.558       .  S
C1355      C1360   1.547       .  S
C1355      C1362   1.552       .  S
C1357      C1360   1.409       .  D
C1357      C1580   1.552       .  S
C1358      C1361   1.365       .  D
C1358      C1553   1.489       .  S
C1359      C1362   1.393       .  D
C1359      C1376   1.523       .  S
C1360      C1565   1.462       .  S
C1361      C1544   1.536       .  S
C1362      C1385   1.542       .  S
C1363      H1364   1.087       .  S
C1363      C1369   1.563       .  S
C1363      C1368   1.544       .  S
C1363      C1367   1.531       .  S
C1365      H1366   1.099       .  S
C1365      C1371   1.558       .  S
C1365      C1370   1.574       .  S
C1365      C1372   1.558       .  S
C1367      C1370   1.410       .  D
C1367      C1592   1.532       .  S
C1368      C1371   1.379       .  D
C1368      C1532   1.508       .  S
C1369      C1372   1.390       .  D
C1369      C1445   1.536       .  S
C1370      C1604   1.521       .  S
C1371      C1520   1.548       .  S
C1372      C1460   1.536       .  S
C1373      C1374   1.411       .  A
C1373      C1378   1.409       .  A
C1374      C1375   1.416       .  A
C1374      H1383   1.084       .  S
C1375      C1376   1.421       .  A
C1375      S1379   1.803       .  S
C1376      C1377   1.406       .  A
C1377      C1378   1.383       .  A
C1377      H1384   1.064       .  S
C1378      S1380   1.810       .  S
S1379      H1382   1.406       .  S
S1380      H1381   1.403       .  S
C1385      C1386   1.416       .  A
C1385      C1390   1.419       .  A
C1386      C1387   1.406       .  A
C1386      H1395   1.077       .  S
C1387      C1388   1.410       .  A
C1387      S1391   1.798       .  S
C1388      C1389   1.411       .  A
C1389      C1390   1.416       .  A
C1389      H1396   1.084       .  S
C1390      S1392   1.795       .  S
S1391      H1394   1.407       .  S
S1392      H1393   1.406       .  S
C1397      C1398   1.407       .  A
C1397      C1402   1.437       .  A
C1398      C1399   1.405       .  A
C1398      H1407   1.083       .  S
C1399      C1400   1.419       .  A
C1399      S1403   1.783       .  S
C1400      C1401   1.397       .  A
C1401      C1402   1.406       .  A
C1401      H1408   1.083       .  S
C1402      S1404   1.795       .  S
S1403      H1406   1.403       .  S
S1404      H1405   1.408       .  S
C1409      C1410   1.410       .  A
C1409      C1414   1.413       .  A
C1410      C1411   1.417       .  A
C1410      H1419   1.083       .  S
C1411      C1412   1.418       .  A
C1411      S1415   1.801       .  S
C1412      C1413   1.407       .  A
C1413      C1414   1.406       .  A
C1413      H1420   1.078       .  S
C1414      S1416   1.800       .  S
S1415      H1418   1.405       .  S
S1416      H1417   1.402       .  S
C1421      C1422   1.394       .  A
C1421      C1426   1.415       .  A
C1422      C1423   1.385       .  A
C1422      H1431   1.057       .  S
C1423      C1424   1.396       .  A
C1423      S1427   1.792       .  S
C1424      C1425   1.413       .  A
C1425      C1426   1.416       .  A
C1425      H1432   1.083       .  S
C1426      S1428   1.802       .  S
S1427      H1430   1.406       .  S
S1428      H1429   1.405       .  S
C1433      C1434   1.407       .  A
C1433      C1438   1.408       .  A
C1434      C1435   1.393       .  A
C1434      H1443   1.078       .  S
C1435      C1436   1.400       .  A
C1435      S1439   1.788       .  S
C1436      C1437   1.414       .  A
C1437      C1438   1.407       .  A
C1437      H1444   1.081       .  S
C1438      S1440   1.804       .  S
S1439      H1442   1.405       .  S
S1440      H1441   1.404       .  S
C1445      C1446   1.411       .  A
C1445      C1450   1.435       .  A
C1446      C1447   1.424       .  A
C1446      H1455   1.083       .  S
C1447      C1448   1.425       .  A
C1447      S1451   1.794       .  S
C1448      C1449   1.399       .  A
C1449      C1450   1.400       .  A
C1449      H1456   1.082       .  S
C1450      S1452   1.807       .  S
S1451      H1454   1.406       .  S
S1452      H1453   1.408       .  S
C1457      C1458   1.395       .  A
C1457      C1462   1.418       .  A
C1458      C1459   1.401       .  A
C1458      H1467   1.083       .  S
C1459      C1460   1.424       .  A
C1459      S1463   1.773       .  S
C1460      C1461   1.419       .  A
C1461      C1462   1.424       .  A
C1461      H1468   1.083       .  S
C1462      S1464   1.802       .  S
S1463      H1466   1.400       .  S
S1464      H1465   1.402       .  S
C1469      C1470   1.400       .  A
C1469      C1474   1.420       .  A
C1470      C1471   1.395       .  A
C1470      H1479   1.083       .  S
C1471      C1472   1.411       .  A
C1471      S1475   1.787       .  S
C1472      C1473   1.414       .  A
C1473      C1474   1.420       .  A
C1473      H1480   1.083       .  S
C1474      S1476   1.803       .  S
S1475      H1478   1.407       .  S
S1476      H1477   1.402       .  S
C1481      C1482   1.408       .  A
C1481      C1486   1.424       .  A
C1482      C1483   1.408       .  A
C1482      H1491   1.079       .  S
C1483      C1484   1.411       .  A
C1483      S1487   1.799       .  S
C1484      C1485   1.411       .  A
C1485      C1486   1.404       .  A
C1485      H1492   1.075       .  S
C1486      S1488   1.803       .  S
S1487      H1490   1.408       .  S
S1488      H1489   1.406       .  S
C1493      C1494   1.414       .  A
C1493      C1498   1.420       .  A
C1494      C1495   1.414       .  A
C1494      H1503   1.081       .  S
C1495      C1496   1.413       .  A
C1495      S1499   1.784       .  S
C1496      C1497   1.409       .  A
C1497      C1498   1.401       .  A
C1497      H1504   1.084       .  S
C1498      S1500   1.801       .  S
S1499      H1502   1.407       .  S
S1500      H1501   1.408       .  S
C1505      C1506   1.392       .  A
C1505      C1510   1.415       .  A
C1506      C1507   1.394       .  A
C1506      H1515   1.085       .  S
C1507      C1508   1.433       .  A
C1507      S1511   1.801       .  S
C1508      C1509   1.406       .  A
C1509      C1510   1.406       .  A
C1509      H1516   1.084       .  S
C1510      S1512   1.802       .  S
S1511      H1514   1.380       .  S
S1512      H1513   1.408       .  S
C1517      C1518   1.402       .  A
C1517      C1522   1.426       .  A
C1518      C1519   1.413       .  A
C1518      H1527   1.081       .  S
C1519      C1520   1.433       .  A
C1519      S1523   1.797       .  S
C1520      C1521   1.412       .  A
C1521      C1522   1.421       .  A
C1521      H1528   1.083       .  S
C1522      S1524   1.798       .  S
S1523      H1526   1.406       .  S
S1524      H1525   1.407       .  S
C1529      C1530   1.396       .  A
C1529      C1534   1.415       .  A
C1530      C1531   1.400       .  A
C1530      H1539   1.082       .  S
C1531      C1532   1.427       .  A
C1531      S1535   1.799       .  S
C1532      C1533   1.409       .  A
C1533      C1534   1.407       .  A
C1533      H1540   1.084       .  S
C1534      S1536   1.803       .  S
S1535      H1538   1.380       .  S
S1536      H1537   1.407       .  S
C1541      C1542   1.418       .  A
C1541      C1546   1.401       .  A
C1542      C1543   1.422       .  A
C1542      H1551   1.083       .  S
C1543      C1544   1.418       .  A
C1543      S1547   1.796       .  S
C1544      C1545   1.410       .  A
C1545      C1546   1.394       .  A
C1545      H1552   1.056       .  S
C1546      S1548   1.799       .  S
S1547      H1550   1.406       .  S
S1548      H1549   1.407       .  S
C1553      C1554   1.400       .  A
C1553      C1558   1.432       .  A
C1554      C1555   1.399       .  A
C1554      H1563   1.084       .  S
C1555      C1556   1.416       .  A
C1555      S1559   1.806       .  S
C1556      C1557   1.389       .  A
C1557      C1558   1.386       .  A
C1557      H1564   1.086       .  S
C1558      S1560   1.812       .  S
S1559      H1562   1.396   1_565  S
S1560      H1561   1.394       .  S
C1565      C1566   1.403       .  A
C1565      C1570   1.411       .  A
C1566      C1567   1.385       .  A
C1566      H1575   1.080       .  S
C1567      C1568   1.402       .  A
C1567      S1571   1.804       .  S
C1568      C1569   1.393       .  A
C1569      C1570   1.386       .  A
C1569      H1576   1.083       .  S
C1570      S1572   1.807       .  S
S1571      H1574   1.407       .  S
S1572      H1573   1.407       .  S
C1577      C1578   1.389       .  A
C1577      C1582   1.401       .  A
C1578      C1579   1.406       .  A
C1578      H1587   1.083       .  S
C1579      C1580   1.445       .  A
C1579      S1583   1.813       .  S
C1580      C1581   1.414       .  A
C1581      C1582   1.402       .  A
C1581      H1588   1.068       .  S
C1582      S1584   1.804       .  S
S1583      H1586   1.406       .  S
S1584      H1585   1.407       .  S
C1589      C1590   1.391       .  A
C1589      C1594   1.410       .  A
C1590      C1591   1.396       .  A
C1590      H1599   1.084       .  S
C1591      C1592   1.444       .  A
C1591      S1595   1.814       .  S
C1592      C1593   1.412       .  A
C1593      C1594   1.400       .  A
C1593      H1600   1.080       .  S
C1594      S1596   1.799       .  S
S1595      H1598   1.408       .  S
S1596      H1597   1.404       .  S
C1601      C1602   1.394       .  A
C1601      C1606   1.410       .  A
C1602      C1603   1.366       .  A
C1602      H1611   1.083       .  S
C1603      C1604   1.414       .  A
C1603      S1607   1.796       .  S
C1604      C1605   1.414       .  A
C1605      C1606   1.413       .  A
C1605      H1612   1.078       .  S
C1606      S1608   1.787       .  S
S1607      H1610   1.408       .  S
S1608      H1609   1.407       .  S
C1613      C1614   1.405       .  A
C1613      C1618   1.398       .  A
C1614      C1615   1.391       .  A
C1614      H1623   1.072       .  S
C1615      C1616   1.404       .  A
C1615      S1619   1.790       .  S
C1616      C1617   1.425       .  A
C1617      C1618   1.400       .  A
C1617      H1624   1.074       .  S
C1618      S1620   1.800       .  S
S1619      H1622   1.406       .  S
S1620      H1621   1.407       .  S
C1625      C1626   1.395       .  A
C1625      C1630   1.410       .  A
C1626      C1627   1.407       .  A
C1626      H1635   1.083       .  S
C1627      C1628   1.423       .  A
C1627      S1631   1.788       .  S
C1628      C1629   1.408       .  A
C1629      C1630   1.415       .  A
C1629      H1636   1.075       .  S
C1630      S1632   1.791       .  S
S1631      H1634   1.405       .  S
S1632      H1633   1.405       .  S
C1637      C1638   1.409       .  A
C1637      C1642   1.418       .  A
C1638      C1639   1.390       .  A
C1638      H1647   1.076       .  S
C1639      C1640   1.397       .  A
C1639      S1643   1.803       .  S
C1640      C1641   1.394       .  A
C1641      C1642   1.390       .  A
C1641      H1648   1.084       .  S
C1642      S1644   1.801       .  S
S1643      H1646   1.407       .  S
S1644      H1645   1.402       .  S
C1649      C1650   1.407       .  A
C1649      C1654   1.421       .  A
C1650      C1651   1.382       .  A
C1650      H1659   1.070       .  S
C1651      C1652   1.384       .  A
C1651      S1655   1.789       .  S
C1652      C1653   1.395       .  A
C1653      C1654   1.388       .  A
C1653      H1660   1.084       .  S
C1654      S1656   1.799       .  S
S1655      H1658   1.406       .  S
S1656      H1657   1.407       .  S
