geometry optimzed in LAMMPS
_audit_creation_date              2020-11-30 
_audit_creation_method            'lammps2cif' 
_symmetry_space_group_name_H-M    'P1' 
_symmetry_Int_Tables_number       1 
_symmetry_cell_setting            triclinic 
loop_ 
_symmetry_equiv_pos_as_xyz 
  x,y,z 
_cell_length_a                    62.55006719 
_cell_length_b                    62.29615930394849 
_cell_length_c                    39.003354431460835 
_cell_angle_alpha                 89.19478061072942 
_cell_angle_beta                  89.74453723258473 
_cell_angle_gamma                 90.01817410040888 
loop_ 
_atom_site_label 
_atom_site_type_symbol 
_atom_site_fract_x 
_atom_site_fract_y 
_atom_site_fract_z 
_atom_site_charge 
Zr1        Zr  0.83547019  0.08159534  0.01446846     2.17500
O2          O  0.85820168  0.09803845  0.05766927    -0.51200
O3          O  0.85272267  0.04682910  0.02437024    -0.74400
O4          O  0.82161668  0.07975692  0.07293433    -0.81200
O5          O  0.87496842  0.09678256  0.94416740    -0.83000
O6          O  0.78541985  0.08213895  0.07102848    -0.78600
O7          O  0.87097494  0.09410393  0.00198437    -0.90200
O8          O  0.83699094  0.02335686  0.98816151    -0.76200
O9          O  0.80589403  0.05778150  0.00993340    -0.85700
O10         O  0.83987271  0.06466841  0.96028869    -0.85400
O11         O  0.80456415  0.10450490  0.01696125    -0.72100
O12         O  0.83635832  0.10976171  0.97164856    -0.84300
Zr13       Zr  0.77915131  0.09173569  0.91459067     2.26400
Zr14       Zr  0.77488723  0.08024548  0.01080134     2.06300
Zr15       Zr  0.83988054  0.09256611  0.91758960     2.10000
Zr16       Zr  0.80983683  0.04144944  0.95554969     1.78800
O17         O  0.85122807  0.12611584  0.89047042    -0.93100
O18         O  0.79048042  0.01429445  0.98888017    -0.40900
O19         O  0.80999721  0.06895934  0.91228389    -0.77500
O20         O  0.77826950  0.06287316  0.95650494    -0.96200
O21         O  0.77525273  0.10847765  0.96865616    -0.89500
O22         O  0.80900145  0.11529359  0.91856077    -0.92300
C23         C  0.85064536  0.02821102  0.01103350     1.01400
C24         C  0.88218604  0.09755898  0.97499164     1.14300
C25         C  0.80324028  0.08142853  0.08738222     1.05100
O26         O  0.76223231  0.04651148  0.03562938    -0.94500
O27         O  0.73920382  0.07692201  0.98570885    -0.90200
O28         O  0.74292876  0.08095545  0.92800277    -0.83400
C29         C  0.73172761  0.07722493  0.95497613     1.11800
O30         O  0.83293640  0.15447789  0.99687982    -0.96500
Zr31       Zr  0.80513334  0.13176361  0.97303892     1.88900
O32         O  0.76272443  0.12727101  0.90684997    -0.73100
O33         O  0.74771792  0.10091769  0.04056837    -0.52400
O34         O  0.79275450  0.15181344  0.02247185    -0.97100
O35         O  0.81307750  0.16092332  0.93255027    -0.54300
O36         O  0.77180526  0.14661817  0.95344512    -0.73600
C37         C  0.76027595  0.14322835  0.92707860     0.98700
O38         O  0.75880785  0.08177858  0.86395853    -0.62500
O39         O  0.86633154  0.07270298  0.88463663    -0.57300
O40         O  0.79313387  0.08707332  0.85680985    -0.93900
O41         O  0.82946164  0.08639843  0.85839130    -0.92400
O42         O  0.83005363  0.02093802  0.91375932    -0.92700
O43         O  0.78851682  0.01874956  0.91863140    -0.91500
C44         C  0.81155429  0.08513039  0.84251243     1.17500
H45         H  0.85324765  0.05700210  0.95880382     0.33500
H46         H  0.76651461  0.05314727  0.95286053     0.44300
H47         H  0.80901983  0.12553216  0.89976626     0.37900
H48         H  0.80400793  0.11178726  0.03861097     0.34400
H49         H  0.79716997  0.00051834  0.98240484     0.26100
H50         H  0.74604693  0.09399863  0.06342524     0.32100
H51         H  0.77824121  0.14614787  0.02725430     0.38000
H52         H  0.84460253  0.02719201  0.91408816     0.32400
H53         H  0.87817797  0.08294645  0.88029729     0.31300
H54         H  0.86279190  0.12189367  0.87452187     0.33000
H55         H  0.82850349  0.15950005  0.92726687     0.32000
H56         H  0.77971989  0.02892766  0.90502453     0.36000
H57         H  0.75294991  0.06728542  0.86892686     0.28700
H58         H  0.86093896  0.08685460  0.07541455     0.32900
H59         H  0.84077500  0.14500238  0.01308122     0.35800
H60         H  0.87227753  0.06194742  0.90090150     0.28400
H61         H  0.74623753  0.09142600  0.86336898     0.41300
H62         H  0.75094894  0.05076224  0.05207043     0.31300
H63         H  0.79498424  0.01639506  0.01290474     0.38900
H64         H  0.81193702  0.17422400  0.94603878     0.30800
H65         H  0.75464144  0.11486981  0.04499169     0.30900
H66         H  0.84932413  0.10902685  0.06907406     0.31100
Zr67       Zr  0.83158482  0.07885698  0.50912552     2.17500
O68         O  0.86000325  0.07997943  0.55182237    -0.51200
O69         O  0.84719326  0.04298461  0.50484231    -0.74400
O70         O  0.81923904  0.07341985  0.56826442    -0.81200
O71         O  0.86727108  0.10747569  0.44246420    -0.83000
O72         O  0.78297748  0.07324316  0.57047512    -0.78600
O73         O  0.86525336  0.09688320  0.49839351    -0.90200
O74         O  0.83007967  0.02500809  0.46276606    -0.76200
O75         O  0.80141815  0.05659469  0.49906182    -0.85700
O76         O  0.83352624  0.06986809  0.44988978    -0.85400
O77         O  0.80134985  0.10123241  0.52278821    -0.72100
O78         O  0.83115067  0.11213255  0.47720195    -0.84300
Zr79       Zr  0.77088970  0.10265995  0.42141973     2.26400
Zr80       Zr  0.77104367  0.07861865  0.51156548     2.06300
Zr81       Zr  0.83186089  0.10297974  0.41803646     2.10000
Zr82       Zr  0.80294196  0.04822037  0.43974536     1.78800
O83         O  0.84273983  0.13829158  0.39692100    -0.93100
O84         O  0.78397636  0.01686671  0.46236260    -0.40900
O85         O  0.80131010  0.08102571  0.40774238    -0.77500
O86         O  0.77189438  0.06884033  0.45224932    -0.96200
O87         O  0.77000556  0.11193691  0.48036765    -0.89500
O88         O  0.80136545  0.12498267  0.42994289    -0.92300
C89         C  0.84425831  0.02649955  0.48605902     1.01400
C90         C  0.87528949  0.10493343  0.47253426     1.14300
C91         C  0.80143830  0.07222964  0.58477314     1.05100
O92         O  0.75902044  0.04350099  0.53185167    -0.94500
O93         O  0.73480327  0.07520149  0.48997163    -0.90200
O94         O  0.73564074  0.08856959  0.43550621    -0.83400
C95         C  0.72597455  0.07970101  0.46107699     1.11800
O96         O  0.82845701  0.14970608  0.52425161    -0.96500
Zr97       Zr  0.80072490  0.13367833  0.48916168     1.88900
O98         O  0.75502482  0.13825358  0.42735263    -0.73100
O99         O  0.74419808  0.09829936  0.54362186    -0.52400
O100        O  0.78763568  0.14952293  0.54202730    -0.97100
O101        O  0.81451580  0.16514845  0.45851566    -0.54300
O102        O  0.76967251  0.15413531  0.47356951    -0.73600
C103        C  0.75576353  0.15317442  0.44971021     0.98700
O104        O  0.74635674  0.10348385  0.37286227    -0.62500
O105        O  0.85863068  0.08544815  0.38256207    -0.57300
O106        O  0.78273104  0.10300046  0.36155329    -0.93900
O107        O  0.81904119  0.10356583  0.35927568    -0.92400
O108        O  0.82222342  0.03775856  0.38823833    -0.92700
O109        O  0.78057893  0.03083895  0.39738487    -0.91500
C110        C  0.80058205  0.10296016  0.34501433     1.17500
H111        H  0.84666530  0.06255585  0.44433878     0.33500
H112        H  0.76018955  0.05948526  0.44653842     0.44300
H113        H  0.80080744  0.13753667  0.41508984     0.37900
H114        H  0.80166149  0.10592443  0.54621206     0.34400
H115        H  0.78955794  0.01472170  0.48587830     0.26100
H116        H  0.74227602  0.09006472  0.56529619     0.32100
H117        H  0.78021128  0.13773315  0.55446900     0.38000
H118        H  0.82755879  0.02309772  0.39329245     0.32400
H119        H  0.85083158  0.07374143  0.37111112     0.31300
H120        H  0.85445777  0.13540184  0.38047663     0.33000
H121        H  0.83020467  0.16309479  0.45775932     0.32000
H122        H  0.76876540  0.04108396  0.39313484     0.36000
H123        H  0.74011909  0.08890659  0.37154339     0.28700
H124        H  0.85978311  0.06585114  0.56375190     0.32900
H125        H  0.83149783  0.13876006  0.54223131     0.35800
H126        H  0.86193296  0.09593749  0.36397791     0.28400
H127        H  0.73433472  0.11282032  0.37981745     0.41300
H128        H  0.74974672  0.04652837  0.55184771     0.31300
H129        H  0.76907879  0.02177537  0.46580750     0.38900
H130        H  0.81227488  0.17721799  0.47438261     0.30800
H131        H  0.75138260  0.11176746  0.55012223     0.30900
H132        H  0.85549122  0.09048562  0.56924889     0.31100
Zr133      Zr  0.57956094  0.33856935  0.84975143     2.17500
O134        O  0.58659674  0.36620559  0.80611657    -0.51200
O135        O  0.54498840  0.35625166  0.85205518    -0.74400
O136        O  0.57267909  0.32718338  0.79112778    -0.81200
O137        O  0.60775757  0.37339746  0.91589437    -0.83000
O138        O  0.57281924  0.29073137  0.78907068    -0.78600
O139        O  0.59598345  0.37257211  0.86087891    -0.90200
O140        O  0.52641251  0.34118621  0.89626084    -0.76200
O141        O  0.55589991  0.30921828  0.85941668    -0.85700
O142        O  0.56975091  0.34083499  0.90881805    -0.85400
O143        O  0.60087469  0.30765122  0.83680199    -0.72100
O144        O  0.61199177  0.33670013  0.88241413    -0.84300
Zr145      Zr  0.59898346  0.27691196  0.93879202     2.26400
Zr146      Zr  0.57710232  0.27802841  0.84777739     2.06300
Zr147      Zr  0.60192538  0.33776219  0.94162691     2.10000
Zr148      Zr  0.54651046  0.31115688  0.91855335     1.78800
O149        O  0.63744697  0.34579857  0.96334486    -0.93100
O150        O  0.51397200  0.29535491  0.89577945    -0.40900
O151        O  0.57832889  0.30809608  0.95184476    -0.77500
O152        O  0.56607264  0.27918750  0.90668605    -0.96200
O153        O  0.60932299  0.27556662  0.88017007    -0.89500
O154        O  0.62290765  0.30633210  0.93019396    -0.92300
C155        C  0.52876033  0.35513955  0.87212900     1.01400
C156        C  0.60455809  0.38207743  0.88619521     1.14300
C157        C  0.57167150  0.30940888  0.77497805     1.05100
O158        O  0.54193047  0.26665957  0.82892940    -0.94500
O159        O  0.57430380  0.24126992  0.86959353    -0.90200
O160        O  0.58308956  0.24264702  0.92597625    -0.83400
C161        C  0.57646898  0.23268201  0.89953823     1.11800
O162        O  0.64922407  0.33062218  0.83083373    -0.96500
Zr163      Zr  0.63245516  0.30535158  0.87092228     1.88900
O164        O  0.63438573  0.26071286  0.93563953    -0.73100
O165        O  0.59624475  0.25324520  0.81088702    -0.52400
O166        O  0.64851930  0.28986324  0.81993684    -0.97100
O167        O  0.66332599  0.32036449  0.89999228    -0.54300
O168        O  0.65043844  0.27252191  0.88664944    -0.73600
C169        C  0.64884575  0.25966490  0.91233904     0.98700
O170        O  0.60105832  0.24787147  0.98142591    -0.62500
O171        O  0.58648438  0.36502122  0.97859057    -0.57300
O172        O  0.59682904  0.28850582  0.99840748    -0.93900
O173        O  0.59893826  0.32477283  0.00094084    -0.92400
O174        O  0.53491557  0.32958956  0.97002845    -0.92700
O175        O  0.52735197  0.28798985  0.95908808    -0.91500
C176        C  0.59698758  0.30610781  0.01520091     1.17500
H177        H  0.56305259  0.35438117  0.91393812     0.33500
H178        H  0.55611051  0.26777997  0.91187667     0.44300
H179        H  0.63515653  0.30508668  0.94512806     0.37900
H180        H  0.60577334  0.30804871  0.81333978     0.34400
H181        H  0.51088658  0.30366515  0.87455154     0.26100
H182        H  0.58577460  0.24907764  0.79321573     0.32100
H183        H  0.66402320  0.28915159  0.82486875     0.38000
H184        H  0.54804592  0.33632320  0.97903096     0.32400
H185        H  0.59864266  0.37426093  0.98512750     0.31300
H186        H  0.63549840  0.35878386  0.97735612     0.33000
H187        H  0.66084473  0.33606572  0.89959836     0.32000
H188        H  0.53739333  0.27614180  0.96440440     0.36000
H189        H  0.61286897  0.25153915  0.99712718     0.28700
H190        H  0.57307299  0.36811778  0.79331945     0.32900
H191        H  0.63714775  0.33724056  0.81820887     0.35800
H192        H  0.57761404  0.37422175  0.96341756     0.28400
H193        H  0.58787623  0.24861847  0.99545417     0.41300
H194        H  0.54475895  0.25789210  0.80842135     0.31300
H195        H  0.51839783  0.28104074  0.88763149     0.38900
H196        H  0.67545258  0.31819910  0.88401058     0.30800
H197        H  0.60685114  0.26226000  0.79844186     0.30900
H198        H  0.59677416  0.35983304  0.78961133     0.31100
Zr199      Zr  0.57509542  0.33520094  0.34331028     2.17500
O200        O  0.58768863  0.35881199  0.29693877    -0.51200
O201        O  0.53943765  0.34950026  0.33268208    -0.74400
O202        O  0.57453958  0.31910572  0.28687001    -0.81200
O203        O  0.59224702  0.37701776  0.40880124    -0.83000
O204        O  0.57689631  0.28283230  0.29186973    -0.78600
O205        O  0.58746956  0.37143131  0.35188903    -0.90200
O206        O  0.51657858  0.33297582  0.37007364    -0.76200
O207        O  0.55272098  0.30472235  0.35244659    -0.85700
O208        O  0.55819337  0.34055322  0.39745133    -0.85400
O209        O  0.59926200  0.30520308  0.34271062    -0.72100
O210        O  0.60330158  0.33837237  0.38434122    -0.84300
Zr211      Zr  0.58823348  0.28215576  0.44834224     2.26400
Zr212      Zr  0.57656533  0.27471762  0.35335518     2.06300
Zr213      Zr  0.58619591  0.34295180  0.43857647     2.10000
Zr214      Zr  0.53656857  0.30961317  0.40713691     1.78800
O215        O  0.61665159  0.35884900  0.46731449    -0.93100
O216        O  0.50968059  0.28678104  0.38111069    -0.40900
O217        O  0.56423262  0.31217620  0.44884576    -0.77500
O218        O  0.55931354  0.27898488  0.40797828    -0.96200
O219        O  0.60498281  0.27725954  0.39416248    -0.89500
O220        O  0.61025616  0.31294851  0.43971408    -0.92300
C221        C  0.52085238  0.34625545  0.34580475     1.01400
C222        C  0.59224448  0.38331613  0.37727572     1.14300
C223        C  0.57588546  0.30031936  0.27400961     1.05100
O224        O  0.54384236  0.25908248  0.33110347    -0.94500
O225        O  0.57380167  0.23984127  0.38121852    -0.90200
O226        O  0.57839064  0.24516912  0.43834567    -0.83400
C227        C  0.57436930  0.23338804  0.41253382     1.11800
O228        O  0.64630549  0.33062096  0.34415931    -0.96500
Zr229      Zr  0.62664599  0.30814914  0.38504326     1.88900
O230        O  0.62406104  0.26769735  0.45817056    -0.73100
O231        O  0.59945757  0.24727901  0.32876112    -0.52400
O232        O  0.64696344  0.28871795  0.34200653    -0.97100
O233        O  0.65339822  0.32945013  0.41461994    -0.54300
O234        O  0.64587011  0.28063117  0.41630383    -0.73600
C235        C  0.64201005  0.26822501  0.44204531     0.98700
O236        O  0.58052870  0.26221228  0.50128363    -0.62500
O237        O  0.56154631  0.36938766  0.46177140    -0.57300
O238        O  0.58301720  0.29805114  0.50437630    -0.93900
O239        O  0.58115035  0.33432277  0.49897485    -0.92400
O240        O  0.51490795  0.33240894  0.44379291    -0.92700
O241        O  0.51702057  0.29009623  0.45179041    -0.91500
C242        C  0.58050402  0.31687078  0.51682622     1.17500
H243        H  0.54992428  0.35362354  0.39758123     0.33500
H244        H  0.55000730  0.26706700  0.41331543     0.44300
H245        H  0.62054844  0.31413600  0.45796454     0.37900
H246        H  0.60644122  0.30418029  0.32084909     0.34400
H247        H  0.49586513  0.29361421  0.38694008     0.26100
H248        H  0.59395464  0.24500158  0.30534325     0.32100
H249        H  0.66090993  0.28553793  0.35285406     0.38000
H250        H  0.51919725  0.34728570  0.43773673     0.32400
H251        H  0.55035933  0.36083070  0.47369843     0.31300
H252        H  0.61142429  0.37302643  0.47486888     0.33000
H253        H  0.66699665  0.32651125  0.40248590     0.32000
H254        H  0.52816692  0.28202420  0.46447131     0.36000
H255        H  0.56686201  0.25458875  0.49753992     0.28700
H256        H  0.57610945  0.35936544  0.27971037     0.32900
H257        H  0.63513849  0.33897501  0.33197950     0.35800
H258        H  0.56955575  0.37634726  0.48042701     0.28400
H259        H  0.59146554  0.25078718  0.50281166     0.41300
H260        H  0.53607316  0.25365842  0.35163595     0.31300
H261        H  0.51127948  0.28931194  0.35611048     0.38900
H262        H  0.65515493  0.32244622  0.43735778     0.30800
H263        H  0.61347182  0.25441099  0.32547043     0.30900
H264        H  0.59965381  0.35115345  0.28575482     0.31100
Zr265      Zr  0.47956510  0.98914243  0.87746253     2.17500
O266        O  0.44934259  0.99106480  0.83824657    -0.51200
O267        O  0.48138470  0.95051434  0.87167668    -0.74400
O268        O  0.49033567  0.99058262  0.81735231    -0.81200
O269        O  0.44130729  0.98935726  0.95482122    -0.83000
O270        O  0.52416405  0.00398617  0.81381536    -0.78600
O271        O  0.44364788  0.98103609  0.89834321    -0.90200
O272        O  0.50462520  0.93746910  0.91141726    -0.76200
O273        O  0.51661780  0.98043297  0.88100409    -0.85700
O274        O  0.48502907  0.97627866  0.93451201    -0.85400
O275        O  0.49826195  0.02217281  0.86553988    -0.72100
O276        O  0.46830803  0.01770346  0.91398922    -0.84300
Zr277      Zr  0.53051186  0.02926598  0.96457782     2.26400
Zr278      Zr  0.53556588  0.01343471  0.87115954     2.06300
Zr279      Zr  0.47509705  0.00518258  0.97105682     2.10000
Zr280      Zr  0.52200373  0.96778057  0.93799129     1.78800
O281        O  0.44980860  0.03234516  0.98987847    -0.93100
O282        O  0.55093800  0.94976150  0.90781387    -0.40900
O283        O  0.51209681  0.99618283  0.97558012    -0.77500
O284        O  0.54194627  0.00025041  0.92833826    -0.96200
O285        O  0.52485076  0.04196435  0.90762189    -0.89500
O286        O  0.49356867  0.03833007  0.96094015    -0.92300
C287        C  0.49070347  0.93510573  0.88774531     1.01400
C288        C  0.43348792  0.98206095  0.92699505     1.14300
C289        C  0.50700503  0.99660427  0.80044899     1.05100
O290        O  0.56273474  0.98830159  0.85195766    -0.94500
O291        O  0.56911214  0.03025750  0.88869822    -0.90200
O292        O  0.56718034  0.03452172  0.94630249    -0.83400
C293        C  0.57718396  0.03572226  0.91761090     1.11800
O294        O  0.45816494  0.05735014  0.86454013    -0.96500
Zr295      Zr  0.48783335  0.05009449  0.90326023     1.88900
O296        O  0.53116370  0.06851084  0.96267234    -0.73100
O297        O  0.54667290  0.04123385  0.83024358    -0.52400
O298        O  0.49603819  0.07323222  0.85406720    -0.97100
O299        O  0.46095085  0.06974388  0.93546142    -0.54300
O300        O  0.50808111  0.08044944  0.92178949    -0.73600
C301        C  0.52300483  0.08326282  0.94348169     0.98700
O302        O  0.55462505  0.03289110  0.01318721    -0.62500
O303        O  0.46297894  0.98063142  0.01611979    -0.57300
O304        O  0.52185771  0.02379866  0.02518794    -0.93900
O305        O  0.48865222  0.00915363  0.02834843    -0.92400
O306        O  0.51121302  0.94419206  0.98526229    -0.92700
O307        O  0.55074890  0.95792726  0.97707415    -0.91500
C308        C  0.50596617  0.01579540  0.04198696     1.17500
H309        H  0.47633627  0.96379566  0.93963343     0.33500
H310        H  0.55689885  0.99694717  0.93147696     0.44300
H311        H  0.48973522  0.04913797  0.97743098     0.37900
H312        H  0.49519076  0.02742561  0.84268168     0.34400
H313        H  0.55026178  0.93467528  0.91609212     0.26100
H314        H  0.55531776  0.03368008  0.81283888     0.32100
H315        H  0.51184020  0.07316115  0.85240909     0.38000
H316        H  0.51554184  0.92962578  0.97813252     0.32400
H317        H  0.44750615  0.98340293  0.01912280     0.31300
H318        H  0.45238870  0.03365604  0.01478692     0.33000
H319        H  0.44790733  0.06078841  0.93416655     0.32000
H320        H  0.55476909  0.97155033  0.98812551     0.36000
H321        H  0.56592928  0.02197002  0.00991849     0.28700
H322        H  0.45130733  0.97919295  0.82190956     0.32900
H323        H  0.45135321  0.04319150  0.86115862     0.35800
H324        H  0.46395191  0.96626140  0.00576057     0.28400
H325        H  0.56189575  0.04688045  0.00987896     0.41300
H326        H  0.56522339  0.99212083  0.82753551     0.31300
H327        H  0.54620433  0.94912562  0.88365978     0.38900
H328        H  0.45774654  0.08256538  0.92110305     0.30800
H329        H  0.53345246  0.04554869  0.81810521     0.30900
H330        H  0.45142464  0.00438760  0.82453757     0.31100
Zr331      Zr  0.47375782  0.99419969  0.37713091     2.17500
O332        O  0.44300770  0.99515394  0.33900139    -0.51200
O333        O  0.47474120  0.95554759  0.37006223    -0.74400
O334        O  0.48493379  0.99680779  0.31679890    -0.81200
O335        O  0.43594480  0.99206490  0.45336735    -0.83000
O336        O  0.51928880  0.00862185  0.31512055    -0.78600
O337        O  0.43724017  0.98760195  0.39570635    -0.90200
O338        O  0.49720886  0.94075863  0.40935809    -0.76200
O339        O  0.51013575  0.98333489  0.38184872    -0.85700
O340        O  0.47766731  0.98044881  0.43421966    -0.85400
O341        O  0.49384647  0.02665026  0.36697606    -0.72100
O342        O  0.46317404  0.02273796  0.41465335    -0.84300
Zr343      Zr  0.52538213  0.02983085  0.46726491     2.26400
Zr344      Zr  0.53053833  0.01557912  0.37329071     2.06300
Zr345      Zr  0.46853519  0.00935680  0.47160920     2.10000
Zr346      Zr  0.51407931  0.96992813  0.43887966     1.78800
O347        O  0.44583942  0.03993462  0.48469854    -0.93100
O348        O  0.54428217  0.95214943  0.41192933    -0.40900
O349        O  0.50475192  0.99803415  0.47690674    -0.77500
O350        O  0.53573999  0.00117046  0.43000157    -0.96200
O351        O  0.52091729  0.04385207  0.41075158    -0.89500
O352        O  0.48902221  0.04135356  0.46363677    -0.92300
C353        C  0.48355638  0.93944046  0.38514603     1.01400
C354        C  0.42764849  0.98661449  0.42482658     1.14300
C355        C  0.50209615  0.00229991  0.30057018     1.05100
O356        O  0.55559432  0.98870867  0.35299919    -0.94500
O357        O  0.56491465  0.02989449  0.39206452    -0.90200
O358        O  0.56223174  0.03369068  0.44960141    -0.83400
C359        C  0.57278561  0.03460754  0.42143444     1.11800
O360        O  0.45285005  0.06286400  0.37254688    -0.96500
Zr361      Zr  0.48446338  0.05421461  0.40628113     1.88900
O362        O  0.52801570  0.06879431  0.46922589    -0.73100
O363        O  0.54483697  0.04314785  0.33466158    -0.52400
O364        O  0.49079095  0.07782170  0.35698686    -0.97100
O365        O  0.46249901  0.07831054  0.44030773    -0.54300
O366        O  0.50915750  0.08130924  0.42358504    -0.73600
C367        C  0.52289825  0.08351045  0.44742786     0.98700
O368        O  0.54998120  0.02830430  0.51566202    -0.62500
O369        O  0.44926878  0.99266761  0.51944932    -0.57300
O370        O  0.51670738  0.02312018  0.52711394    -0.93900
O371        O  0.48345163  0.00874242  0.52902479    -0.92400
O372        O  0.50151612  0.94444539  0.48244428    -0.92700
O373        O  0.53993543  0.96002653  0.48282192    -0.91500
C374        C  0.50096630  0.01446526  0.54331035     1.17500
H375        H  0.46845399  0.96825425  0.43829970     0.33500
H376        H  0.55045576  0.99701337  0.43345642     0.44300
H377        H  0.48586553  0.05208497  0.48058156     0.37900
H378        H  0.49120950  0.03248275  0.34435244     0.34400
H379        H  0.54363990  0.93717342  0.42071216     0.26100
H380        H  0.55349086  0.03525301  0.31766353     0.32100
H381        H  0.50375996  0.07199558  0.34588676     0.38000
H382        H  0.48572302  0.94527865  0.48161133     0.32400
H383        H  0.43442678  0.99812543  0.51810351     0.31300
H384        H  0.43261557  0.03744860  0.47146581     0.33000
H385        H  0.44765603  0.07309830  0.43765639     0.32000
H386        H  0.54285696  0.97356561  0.49495752     0.36000
H387        H  0.55851000  0.04166725  0.51449449     0.28700
H388        H  0.44662312  0.98624197  0.31897992     0.32900
H389        H  0.45151639  0.05085195  0.35632807     0.35800
H390        H  0.44827439  0.97729369  0.51370322     0.28400
H391        H  0.56020457  0.01663893  0.51047194     0.41300
H392        H  0.56368691  0.98427260  0.37365399     0.31300
H393        H  0.54025335  0.95115245  0.38749939     0.38900
H394        H  0.46287166  0.09213789  0.42747623     0.30800
H395        H  0.53238426  0.04860180  0.32161676     0.30900
H396        H  0.44244003  0.01009329  0.33019408     0.31100
Zr397      Zr  0.43680050  0.67752276  0.80804867     2.17500
O398        O  0.43413239  0.64824271  0.76726574    -0.51200
O399        O  0.47213918  0.66043891  0.80942821    -0.74400
O400        O  0.43923838  0.68956578  0.74793358    -0.81200
O401        O  0.40738825  0.64404691  0.87778701    -0.83000
O402        O  0.44225304  0.72585349  0.74575874    -0.78600
O403        O  0.41815523  0.64452830  0.82215068    -0.90200
O404        O  0.49205485  0.67606170  0.85074769    -0.76200
O405        O  0.46062016  0.70685092  0.81500056    -0.85700
O406        O  0.44840700  0.67531416  0.86610513    -0.85400
O407        O  0.41478670  0.70862221  0.79644685    -0.72100
O408        O  0.40524575  0.68011948  0.84334175    -0.84300
Zr409      Zr  0.42048301  0.73983307  0.89723173     2.26400
Zr410      Zr  0.43901658  0.73796762  0.80420146     2.06300
Zr411      Zr  0.41721086  0.67857635  0.90135392     2.10000
Zr412      Zr  0.47167460  0.70507534  0.87350563     1.78800
O413        O  0.38456517  0.66572426  0.92900283    -0.93100
O414        O  0.50354785  0.72137909  0.84810162    -0.40900
O415        O  0.44090677  0.70816653  0.90927574    -0.77500
O416        O  0.45201798  0.73708437  0.86200569    -0.96200
O417        O  0.40797074  0.74139017  0.83979176    -0.89500
O418        O  0.39643612  0.71036716  0.89159279    -0.92300
C419        C  0.48912404  0.66214376  0.82757409     1.01400
C420        C  0.40918697  0.63544708  0.84817609     1.14300
C421        C  0.44099029  0.70752216  0.73144742     1.05100
O422        O  0.47391546  0.75066245  0.78496168    -0.94500
O423        O  0.44213074  0.77467493  0.82202519    -0.90200
O424        O  0.43437040  0.77487454  0.87909963    -0.83400
C425        C  0.44070670  0.78390761  0.85102131     1.11800
O426        O  0.36580264  0.69088230  0.79074016    -0.96500
Zr427      Zr  0.38441916  0.71174660  0.83382306     1.88900
O428        O  0.38518334  0.75632219  0.89868822    -0.73100
O429        O  0.41924783  0.76231622  0.76653050    -0.52400
O430        O  0.36820287  0.73411270  0.78931759    -0.97100
O431        O  0.35569153  0.69038520  0.85954543    -0.54300
O432        O  0.36376739  0.74008483  0.86010890    -0.73600
C433        C  0.36741888  0.75443204  0.88260843     0.98700
O434        O  0.42917961  0.76279057  0.94541131    -0.62500
O435        O  0.43909161  0.65338574  0.93418178    -0.57300
O436        O  0.41902212  0.72818640  0.95705158    -0.93900
O437        O  0.41662824  0.69177285  0.95961357    -0.92400
O438        O  0.48314290  0.68575864  0.92493913    -0.92700
O439        O  0.49166068  0.72747298  0.91273804    -0.91500
C440        C  0.41795438  0.71025349  0.97364916     1.17500
H441        H  0.45529903  0.66178978  0.87094538     0.33500
H442        H  0.46195025  0.74865536  0.86577360     0.44300
H443        H  0.38480908  0.71131230  0.90788607     0.37900
H444        H  0.40892361  0.70858569  0.77363927     0.34400
H445        H  0.51565921  0.71319527  0.85802843     0.26100
H446        H  0.42997484  0.76788505  0.74990698     0.32100
H447        H  0.37624876  0.74778902  0.78986806     0.38000
H448        H  0.48143945  0.67037628  0.91952500     0.32400
H449        H  0.42916991  0.64691544  0.95125733     0.31300
H450        H  0.38912261  0.65326334  0.94321478     0.33000
H451        H  0.35368621  0.69608493  0.88288670     0.32000
H452        H  0.48065350  0.73351634  0.92816484     0.36000
H453        H  0.44435614  0.76691023  0.94214134     0.28700
H454        H  0.44785125  0.64821930  0.75450107     0.32900
H455        H  0.35062060  0.69529424  0.79220531     0.35800
H456        H  0.44245339  0.64158416  0.91834507     0.28400
H457        H  0.42095578  0.77620354  0.94176637     0.41300
H458        H  0.47076890  0.76074077  0.76578948     0.31300
H459        H  0.50328105  0.71714656  0.82373190     0.38900
H460        H  0.36201838  0.67597527  0.86326725     0.30800
H461        H  0.40983795  0.75296722  0.75288312     0.30900
H462        H  0.42328275  0.65261553  0.75017445     0.31100
Zr463      Zr  0.43088582  0.68056109  0.30709291     2.17500
O464        O  0.42344458  0.65321029  0.26448736    -0.51200
O465        O  0.46624076  0.66347277  0.30547862    -0.74400
O466        O  0.43155655  0.69348062  0.24764195    -0.81200
O467        O  0.41021354  0.64357554  0.37918861    -0.83000
O468        O  0.43306901  0.72993671  0.24618146    -0.78600
O469        O  0.41519057  0.64612264  0.32162034    -0.90200
O470        O  0.48838520  0.68168727  0.34081077    -0.76200
O471        O  0.45412480  0.71068358  0.31168370    -0.85700
O472        O  0.44533658  0.67846845  0.36341351    -0.85400
O473        O  0.40805209  0.71139430  0.29891013    -0.72100
O474        O  0.40071537  0.68118699  0.34552840    -0.84300
Zr475      Zr  0.41684167  0.74093949  0.39948818     2.26400
Zr476      Zr  0.43151855  0.74152813  0.30501018     2.06300
Zr477      Zr  0.41555614  0.67955531  0.40170104     2.10000
Zr478      Zr  0.46808538  0.70892326  0.36835328     1.78800
O479        O  0.38154836  0.67007685  0.42847248    -0.93100
O480        O  0.49719158  0.72761479  0.33879282    -0.40900
O481        O  0.43883132  0.70979420  0.40758127    -0.77500
O482        O  0.44702894  0.74036967  0.36110327    -0.96200
O483        O  0.40173813  0.74306137  0.34365404    -0.89500
O484        O  0.39345258  0.71078432  0.39519702    -0.92300
C485        C  0.48432325  0.66657607  0.32014180     1.01400
C486        C  0.41022361  0.63557787  0.34895938     1.14300
C487        C  0.43214674  0.71164089  0.23167900     1.05100
O488        O  0.46420286  0.75630976  0.28010842    -0.94500
O489        O  0.43601256  0.77779562  0.32490181    -0.90200
O490        O  0.42925983  0.77680809  0.38219451    -0.83400
C491        C  0.43504185  0.78658306  0.35437410     1.11800
O492        O  0.36207128  0.69026816  0.29576127    -0.96500
Zr493      Zr  0.37900576  0.71256070  0.33882201     1.88900
O494        O  0.38100485  0.75537777  0.40595778    -0.73100
O495        O  0.40833248  0.76520667  0.27173790    -0.52400
O496        O  0.36020726  0.73368008  0.29536071    -0.97100
O497        O  0.35012758  0.69187310  0.36545715    -0.54300
O498        O  0.35854917  0.73960446  0.36832364    -0.73600
C499        C  0.36276487  0.75329694  0.39152314     0.98700
O500        O  0.42101511  0.76449578  0.44850626    -0.62500
O501        O  0.43453994  0.65120350  0.43260851    -0.57300
O502        O  0.42226893  0.72770524  0.45788185    -0.93900
O503        O  0.42121751  0.69120867  0.45997480    -0.92400
O504        O  0.48564193  0.68881986  0.41423327    -0.92700
O505        O  0.48777477  0.73210316  0.40685328    -0.91500
C506        C  0.42315491  0.70959733  0.47400259     1.17500
H507        H  0.45288332  0.66519732  0.36752179     0.33500
H508        H  0.45682262  0.75208692  0.36462547     0.44300
H509        H  0.38248606  0.71128038  0.41271125     0.37900
H510        H  0.40139533  0.71147149  0.27663328     0.34400
H511        H  0.49767867  0.72139350  0.31558093     0.26100
H512        H  0.41776950  0.77153794  0.25382301     0.32100
H513        H  0.36308640  0.74883584  0.30110361     0.38000
H514        H  0.48441460  0.67355061  0.40780508     0.32400
H515        H  0.44855296  0.65757009  0.43831624     0.31300
H516        H  0.38549200  0.66242242  0.44993968     0.33000
H517        H  0.33691301  0.69951817  0.35859129     0.32000
H518        H  0.47778233  0.73465618  0.42613428     0.36000
H519        H  0.43607855  0.76934437  0.44786410     0.28700
H520        H  0.43563997  0.65339041  0.24820651     0.32900
H521        H  0.34658731  0.69346702  0.29698884     0.35800
H522        H  0.42701238  0.64956711  0.45487430     0.28400
H523        H  0.41249165  0.77750109  0.44316388     0.41300
H524        H  0.47303301  0.74363632  0.27453910     0.31300
H525        H  0.49190124  0.74243502  0.33506635     0.38900
H526        H  0.35132453  0.69444379  0.39034307     0.30800
H527        H  0.39869943  0.75548392  0.25918813     0.30900
H528        H  0.41099713  0.65841061  0.25117394     0.31100
Zr529      Zr  0.17463243  0.93215982  0.99390156     2.17500
O530        O  0.14808839  0.92253180  0.03764741    -0.51200
O531        O  0.15922709  0.96802298  0.99792540    -0.74400
O532        O  0.18714000  0.93407074  0.05291244    -0.81200
O533        O  0.13652231  0.91343306  0.92411240    -0.83000
O534        O  0.22337464  0.93298121  0.05306422    -0.78600
O535        O  0.13932803  0.91951403  0.98108804    -0.90200
O536        O  0.17470962  0.98927551  0.95698966    -0.76200
O537        O  0.20418422  0.95578878  0.98584227    -0.85700
O538        O  0.17158254  0.94576403  0.93669098    -0.85400
O539        O  0.20499753  0.90903167  0.00224653    -0.72100
O540        O  0.17471782  0.90149076  0.95706449    -0.84300
Zr541      Zr  0.23371570  0.91688323  0.89921972     2.26400
Zr542      Zr  0.23468015  0.93298506  0.99326975     2.06300
Zr543      Zr  0.17262311  0.91548295  0.89986129     2.10000
Zr544      Zr  0.20153276  0.96869180  0.92812463     1.78800
O545        O  0.16155669  0.88052625  0.87927324    -0.93100
O546        O  0.22222406  0.99819206  0.95144482    -0.40900
O547        O  0.20259869  0.93880008  0.89071965    -0.77500
O548        O  0.23292235  0.94766645  0.93612150    -0.96200
O549        O  0.23596125  0.90278005  0.95607503    -0.89500
O550        O  0.20381722  0.89327093  0.90601773    -0.92300
C551        C  0.16126908  0.98577374  0.98116337     1.01400
C552        C  0.12854214  0.91482220  0.95445607     1.14300
C553        C  0.20516672  0.93334154  0.06841878     1.05100
O554        O  0.24672195  0.96644634  0.01820106    -0.94500
O555        O  0.27051076  0.93718483  0.97047786    -0.90200
O556        O  0.26930231  0.92961969  0.91362538    -0.83400
C557        C  0.27912575  0.93557719  0.94071686     1.11800
O558        O  0.18155232  0.85919745  0.99989260    -0.96500
Zr559      Zr  0.20600349  0.87972290  0.96337388     1.88900
O560        O  0.24880374  0.88084796  0.89507509    -0.73100
O561        O  0.26211184  0.91249974  0.02332718    -0.52400
O562        O  0.22450117  0.86374265  0.01224635    -0.97100
O563        O  0.18997563  0.84874220  0.93590322    -0.54300
O564        O  0.23671357  0.86124107  0.94059421    -0.73600
C565        C  0.24936561  0.86433960  0.91513194     0.98700
O566        O  0.26169265  0.92187535  0.85596416    -0.62500
O567        O  0.14691900  0.93360731  0.86264983    -0.57300
O568        O  0.22028313  0.92125595  0.84057348    -0.93900
O569        O  0.18404043  0.91910585  0.84054973    -0.92400
O570        O  0.17930992  0.98642591  0.88514626    -0.92700
O571        O  0.22198670  0.98581131  0.88198632    -0.91500
C572        C  0.20211295  0.92148371  0.82525513     1.17500
H573        H  0.15829054  0.95337810  0.93333547     0.33500
H574        H  0.24454423  0.95751101  0.93159200     0.44300
H575        H  0.20420272  0.88204964  0.88923406     0.37900
H576        H  0.20499867  0.90252203  0.02482183     0.34400
H577        H  0.21536776  0.01130825  0.94199346     0.26100
H578        H  0.26360973  0.91939949  0.04589830     0.32100
H579        H  0.22446217  0.84812139  0.00788637     0.38000
H580        H  0.18108718  0.00197184  0.88929924     0.32400
H581        H  0.13603701  0.92262230  0.85728593     0.31300
H582        H  0.15668273  0.88330466  0.85550902     0.33000
H583        H  0.19797979  0.84692235  0.91419010     0.32000
H584        H  0.23170019  0.97444889  0.87365432     0.36000
H585        H  0.25999499  0.91000366  0.83961572     0.28700
H586        H  0.14691502  0.93500453  0.05301478     0.32900
H587        H  0.17515419  0.86996541  0.01529842     0.35800
H588        H  0.13940523  0.94404819  0.87733085     0.28400
H589        H  0.25802219  0.93510634  0.84290336     0.41300
H590        H  0.25968144  0.96244579  0.03130510     0.31300
H591        H  0.21856590  0.99825076  0.97616851     0.38900
H592        H  0.17559387  0.85363650  0.92877018     0.30800
H593        H  0.25536440  0.89843988  0.02833073     0.30900
H594        H  0.15445408  0.91086114  0.05176294     0.31100
Zr595      Zr  0.16830766  0.93136993  0.49168906     2.17500
O596        O  0.13965743  0.92389203  0.53287611    -0.51200
O597        O  0.15320870  0.96718014  0.49547220    -0.74400
O598        O  0.17963319  0.93460684  0.55116372    -0.81200
O599        O  0.13398759  0.90707574  0.41982098    -0.83000
O600        O  0.21564871  0.93972090  0.55265397    -0.78600
O601        O  0.13423340  0.91656854  0.47594668    -0.90200
O602        O  0.16840898  0.98660781  0.45231776    -0.76200
O603        O  0.19726047  0.95630745  0.48506391    -0.85700
O604        O  0.16509470  0.94336719  0.43301397    -0.85400
O605        O  0.19967971  0.91023742  0.50457633    -0.72100
O606        O  0.17028907  0.89915709  0.45766107    -0.84300
Zr607      Zr  0.23098550  0.91528393  0.40226337     2.26400
Zr608      Zr  0.22919721  0.93474976  0.49477404     2.06300
Zr609      Zr  0.17009401  0.91172528  0.39880243     2.10000
Zr610      Zr  0.19570653  0.96488198  0.42597187     1.78800
O611        O  0.16045526  0.87632700  0.37818459    -0.93100
O612        O  0.21859991  0.99648378  0.42515933    -0.40900
O613        O  0.19918362  0.93610595  0.38727557    -0.77500
O614        O  0.22928301  0.94809112  0.43583468    -0.96200
O615        O  0.23298537  0.90262808  0.46082675    -0.89500
O616        O  0.20171013  0.89092771  0.40997439    -0.92300
C617        C  0.15526973  0.98434078  0.47734684     1.01400
C618        C  0.12499497  0.90954117  0.44911403     1.14300
C619        C  0.19725412  0.93778169  0.56714118     1.05100
O620        O  0.24281328  0.96922825  0.51342446    -0.94500
O621        O  0.26575982  0.93741881  0.47345465    -0.90200
O622        O  0.26566356  0.92966486  0.41659412    -0.83400
C623        C  0.27491383  0.93568541  0.44404581     1.11800
O624        O  0.17886903  0.85801029  0.50456930    -0.96500
Zr625      Zr  0.20273375  0.87964732  0.46864934     1.88900
O626        O  0.24820519  0.88033534  0.40502900    -0.73100
O627        O  0.25248634  0.91483507  0.53373923    -0.52400
O628        O  0.22109035  0.86868980  0.52099701    -0.97100
O629        O  0.18863536  0.84646760  0.44512753    -0.54300
O630        O  0.23350206  0.86051249  0.44827257    -0.73600
C631        C  0.24743537  0.86369414  0.42468736     0.98700
O632        O  0.25531093  0.91620692  0.35308466    -0.62500
O633        O  0.14409615  0.92927565  0.36139937    -0.57300
O634        O  0.21988855  0.91574436  0.34281169    -0.93900
O635        O  0.18378342  0.91197272  0.34033462    -0.92400
O636        O  0.20902403  0.93162607  0.44414374    -0.92700
O637        O  0.18809000  0.97770599  0.36809267    -0.91500
C638        C  0.20226660  0.91430514  0.32633092     1.17500
H639        H  0.15188227  0.95065879  0.42804442     0.33500
H640        H  0.24038566  0.95833513  0.43090742     0.44300
H641        H  0.20290498  0.87894034  0.39455489     0.37900
H642        H  0.19954160  0.90464344  0.52773701     0.34400
H643        H  0.20852847  0.00869797  0.42666987     0.26100
H644        H  0.26052635  0.92601643  0.54606535     0.32100
H645        H  0.22359135  0.85309909  0.51847400     0.38000
H646        H  0.19663467  0.92247461  0.44569347     0.32400
H647        H  0.15108899  0.94284079  0.35399077     0.31300
H648        H  0.15342467  0.87911136  0.35587633     0.33000
H649        H  0.19776763  0.84330201  0.42503389     0.32000
H650        H  0.17313661  0.98286877  0.36933395     0.36000
H651        H  0.26051399  0.93119514  0.35112607     0.28700
H652        H  0.13863420  0.93671545  0.54751428     0.32900
H653        H  0.17712787  0.86631013  0.52584849     0.35800
H654        H  0.14351988  0.92049953  0.34045484     0.28400
H655        H  0.26797939  0.90769236  0.36002313     0.41300
H656        H  0.23172099  0.97973858  0.50651681     0.31300
H657        H  0.22583787  0.99612978  0.44767425     0.38900
H658        H  0.17465639  0.85054700  0.43516670     0.30800
H659        H  0.24289772  0.90834686  0.55129273     0.30900
H660        H  0.14498683  0.91226385  0.54811282     0.31100
Zr661      Zr  0.93392704  0.83664624  0.00946296     2.17500
O662        O  0.92852396  0.86076679  0.05758475    -0.51200
O663        O  0.96886369  0.85378476  0.01241797    -0.74400
O664        O  0.93666035  0.81952383  0.06596689    -0.81200
O665        O  0.90991827  0.87748972  0.94592634    -0.83000
O666        O  0.93792807  0.78316883  0.06216802    -0.78600
O667        O  0.91731090  0.87155390  0.00224352    -0.90200
O668        O  0.98953769  0.83972874  0.97030538    -0.76200
O669        O  0.95683896  0.80700131  0.99806616    -0.85700
O670        O  0.94701841  0.84265516  0.95260616    -0.85400
O671        O  0.91142513  0.80543045  0.01479682    -0.72100
O672        O  0.90299501  0.83860647  0.97327245    -0.84300
Zr673      Zr  0.91665704  0.78271243  0.90907027     2.26400
Zr674      Zr  0.93442920  0.77568418  0.00149033     2.06300
Zr675      Zr  0.91639827  0.84369226  0.91621957     2.10000
Zr676      Zr  0.96936820  0.81274729  0.94098957     1.78800
O677        O  0.88365213  0.85662028  0.88967031    -0.93100
O678        O  0.99904805  0.79259087  0.96583427    -0.40900
O679        O  0.93912596  0.81378495  0.90368269    -0.77500
O680        O  0.94818142  0.78096385  0.94436506    -0.96200
O681        O  0.90340617  0.77704802  0.96566270    -0.89500
O682        O  0.89391795  0.81250117  0.92037773    -0.92300
C683        C  0.98617300  0.85268776  0.99485649     1.01400
C684        C  0.91099107  0.88357679  0.97731624     1.14300
C685        C  0.93755804  0.80058379  0.07931485     1.05100
O686        O  0.96766554  0.75964726  0.02157131    -0.94500
O687        O  0.93853133  0.74086012  0.97441861    -0.90200
O688        O  0.92996483  0.74630758  0.91844000    -0.83400
C689        C  0.93675031  0.73447467  0.94337095     1.11800
O690        O  0.86372006  0.82682389  0.02333075    -0.96500
Zr691      Zr  0.88128069  0.80717353  0.97759370     1.88900
O692        O  0.88101128  0.76720847  0.90694608    -0.73100
O693        O  0.91173843  0.75007821  0.03234201    -0.52400
O694        O  0.86580351  0.78427551  0.02229633    -0.97100
O695        O  0.85151793  0.82874902  0.95629721    -0.54300
O696        O  0.85976709  0.78116635  0.94834336    -0.73600
C697        C  0.86342176  0.76825093  0.92382094     0.98700
O698        O  0.91697685  0.76211790  0.85625267    -0.62500
O699        O  0.93785796  0.87219893  0.88992879    -0.57300
O700        O  0.91917667  0.79942003  0.85215177    -0.93900
O701        O  0.91825648  0.83580531  0.85525849    -0.92400
O702        O  0.98335036  0.83366574  0.89267374    -0.92700
O703        O  0.99196248  0.79291265  0.90159890    -0.91500
C704        C  0.91951041  0.81829783  0.83834577     1.17500
H705        H  0.95441035  0.85619034  0.95010779     0.33500
H706        H  0.95786723  0.76965088  0.93791697     0.44300
H707        H  0.88237770  0.81317727  0.90402547     0.37900
H708        H  0.90543611  0.80390646  0.03753463     0.34400
H709        H  0.00189108  0.79942972  0.98811881     0.26100
H710        H  0.92183041  0.74100443  0.04560582     0.32100
H711        H  0.87065775  0.76961186  0.01667425     0.38000
H712        H  0.98802974  0.84742645  0.90258336     0.32400
H713        H  0.94705015  0.86496571  0.87289689     0.31300
H714        H  0.87251506  0.85426803  0.90740233     0.33000
H715        H  0.83871480  0.82261788  0.96780410     0.32000
H716        H  0.98177199  0.78462998  0.88768268     0.36000
H717        H  0.93190762  0.75729769  0.85304449     0.28700
H718        H  0.94121506  0.85921106  0.07250714     0.32900
H719        H  0.87091164  0.84098637  0.02336525     0.35800
H720        H  0.92759494  0.88069731  0.87605484     0.28400
H721        H  0.90879898  0.74883274  0.86138024     0.41300
H722        H  0.97579146  0.77167578  0.03152689     0.31300
H723        H  0.99294929  0.77838442  0.97198962     0.38900
H724        H  0.84987150  0.82471444  0.93200772     0.30800
H725        H  0.90419030  0.75861756  0.04985953     0.30900
H726        H  0.91641446  0.85483860  0.07111214     0.31100
Zr727      Zr  0.92709641  0.83756845  0.50009091     2.17500
O728        O  0.91543741  0.86483450  0.54054139    -0.51200
O729        O  0.96257378  0.85372792  0.49903328    -0.74400
O730        O  0.93200628  0.82820036  0.56056891    -0.81200
O731        O  0.90720613  0.87195868  0.42485362    -0.83000
O732        O  0.92863080  0.79204319  0.56701383    -0.78600
O733        O  0.91431063  0.87230024  0.48178021    -0.90200
O734        O  0.98405671  0.83268191  0.46649340    -0.76200
O735        O  0.94965187  0.80690352  0.49783618    -0.85700
O736        O  0.94041225  0.83690487  0.44270898    -0.85400
O737        O  0.90398630  0.80785245  0.51366446    -0.72100
O738        O  0.89643524  0.83592769  0.46330147    -0.84300
Zr739      Zr  0.91067521  0.77329216  0.41583565     2.26400
Zr740      Zr  0.92666145  0.77694315  0.50983822     2.06300
Zr741      Zr  0.90993924  0.83456424  0.40610836     2.10000
Zr742      Zr  0.96263491  0.80590303  0.44048291     1.78800
O743        O  0.87462722  0.84207807  0.38273102    -0.93100
O744        O  0.98951908  0.78474240  0.47081900    -0.40900
O745        O  0.93287012  0.80383854  0.40284058    -0.77500
O746        O  0.94133979  0.77513831  0.45276036    -0.96200
O747        O  0.89653237  0.77435139  0.47260640    -0.89500
O748        O  0.88763390  0.80397723  0.41786327    -0.92300
C749        C  0.98054759  0.84891144  0.48520173     1.01400
C750        C  0.90880391  0.88162071  0.45372903     1.14300
C751        C  0.93064461  0.81103417  0.57902993     1.05100
O752        O  0.95902523  0.76363980  0.53722158    -0.94500
O753        O  0.93035988  0.73969934  0.49359438    -0.90200
O754        O  0.92242234  0.73775767  0.43679000    -0.83400
C755        C  0.92860151  0.72939459  0.46548271     1.11800
O756        O  0.85642820  0.83184628  0.51060032    -0.96500
Zr757      Zr  0.87451049  0.80542366  0.47534993     1.88900
O758        O  0.87461024  0.75874704  0.41502805    -0.73100
O759        O  0.90303841  0.75453057  0.54498416    -0.52400
O760        O  0.85827514  0.78924418  0.52633223    -0.97100
O761        O  0.84380915  0.82169064  0.44674499    -0.54300
O762        O  0.85451389  0.77528176  0.45551768    -0.73600
C763        C  0.85756420  0.76089700  0.43303656     0.98700
O764        O  0.91421404  0.74785353  0.36912108    -0.62500
O765        O  0.92384578  0.86264803  0.36800128    -0.57300
O766        O  0.91549031  0.78314759  0.35521716    -0.93900
O767        O  0.91597380  0.81950413  0.34939149    -0.92400
O768        O  0.98252064  0.82574618  0.39654030    -0.92700
O769        O  0.98122554  0.78358788  0.39913781    -0.91500
C770        C  0.91729397  0.80049150  0.33709321     1.17500
H771        H  0.94824146  0.84984175  0.43694390     0.33500
H772        H  0.95088836  0.76311224  0.45012766     0.44300
H773        H  0.87630393  0.80260800  0.40130142     0.37900
H774        H  0.89794278  0.80927652  0.53633770     0.34400
H775        H  0.00337338  0.79034898  0.46218095     0.26100
H776        H  0.90837001  0.75574127  0.56873296     0.32100
H777        H  0.84298501  0.78752136  0.52051371     0.38000
H778        H  0.97469934  0.83945554  0.39357973     0.32400
H779        H  0.93603008  0.85612860  0.35574784     0.31300
H780        H  0.87639295  0.84069692  0.35762026     0.33000
H781        H  0.83122972  0.81506636  0.45820830     0.32000
H782        H  0.97122393  0.78247905  0.37963045     0.36000
H783        H  0.92865708  0.74150444  0.37147214     0.28700
H784        H  0.92791923  0.86806622  0.55513623     0.32900
H785        H  0.86810853  0.83931344  0.52266947     0.35800
H786        H  0.91269329  0.86470194  0.35031628     0.28400
H787        H  0.90420260  0.73599566  0.37478021     0.41300
H788        H  0.95390451  0.75296738  0.55442915     0.31300
H789        H  0.98879133  0.78959067  0.49486136     0.38900
H790        H  0.84368973  0.81568886  0.42339343     0.30800
H791        H  0.88921627  0.76223574  0.54503558     0.30900
H792        H  0.90486448  0.85777874  0.55596579     0.31100
Zr793      Zr  0.67961695  0.57950325  0.82659173     2.17500
O794        O  0.65084533  0.58004669  0.78448491    -0.51200
O795        O  0.66591188  0.54280110  0.82894004    -0.74400
O796        O  0.69218225  0.57833469  0.76723674    -0.81200
O797        O  0.64168943  0.60258372  0.89415498    -0.83000
O798        O  0.72840096  0.58065543  0.76496966    -0.78600
O799        O  0.64433009  0.59377564  0.83800318    -0.90200
O800        O  0.68448970  0.52349082  0.86860992    -0.76200
O801        O  0.71151144  0.55904559  0.83382467    -0.85700
O802        O  0.67855133  0.56735195  0.88473800    -0.85400
O803        O  0.70813691  0.60469744  0.81531292    -0.72100
O804        O  0.67786825  0.61120395  0.86090969    -0.84300
Zr805      Zr  0.73820788  0.60209102  0.91737305     2.26400
Zr806      Zr  0.74026129  0.58411039  0.82413375     2.06300
Zr807      Zr  0.67732379  0.59886714  0.91897469     2.10000
Zr808      Zr  0.71064882  0.54715858  0.89217391     1.78800
O809        O  0.66530181  0.63269190  0.94302615    -0.93100
O810        O  0.73260656  0.51916128  0.86677034    -0.40900
O811        O  0.70897513  0.57806865  0.92725179    -0.77500
O812        O  0.74009854  0.57060714  0.88215872    -0.96200
O813        O  0.73913468  0.61505969  0.85971269    -0.89500
O814        O  0.70665146  0.62320346  0.91019842    -0.92300
C815        C  0.66961245  0.52567954  0.84653259     1.01400
C816        C  0.63375989  0.60034082  0.86404752     1.14300
C817        C  0.70997455  0.57933100  0.75069029     1.05100
O818        O  0.75680928  0.55160465  0.80257215    -0.94500
O819        O  0.77687567  0.58359967  0.84596596    -0.90200
O820        O  0.77446852  0.59144482  0.90266676    -0.83400
C821        C  0.78502384  0.58583792  0.87595491     1.11800
O822        O  0.68082669  0.65229614  0.81470411    -0.96500
Zr823      Zr  0.70721764  0.63517842  0.85175006     1.88900
O824        O  0.75153023  0.63884612  0.91620154    -0.73100
O825        O  0.76193396  0.60846226  0.78903663    -0.52400
O826        O  0.72346659  0.65080367  0.80030164    -0.97100
O827        O  0.68890154  0.66586007  0.87674609    -0.54300
O828        O  0.73667823  0.65663235  0.87107911    -0.73600
C829        C  0.75021155  0.65494402  0.89542384     0.98700
O830        O  0.76172477  0.60231233  0.96715371    -0.62500
O831        O  0.65176321  0.57940397  0.95501944    -0.57300
O832        O  0.72566601  0.59616600  0.97652822    -0.93900
O833        O  0.68938254  0.59470823  0.97759084    -0.92400
O834        O  0.69308255  0.52753899  0.93878059    -0.92700
O835        O  0.73476991  0.53354078  0.93626193    -0.91500
C836        C  0.70765613  0.59383447  0.99232861     1.17500
H837        H  0.66596873  0.55890707  0.88966793     0.33500
H838        H  0.75244509  0.56182493  0.88685473     0.44300
H839        H  0.70651826  0.63484585  0.92632329     0.37900
H840        H  0.70740877  0.61068039  0.79249532     0.34400
H841        H  0.72809901  0.51863487  0.84249542     0.26100
H842        H  0.76871986  0.59922499  0.77163723     0.32100
H843        H  0.72378771  0.66644380  0.80446821     0.38000
H844        H  0.67788444  0.53187812  0.93733917     0.32400
H845        H  0.64270986  0.59068595  0.96526221     0.31300
H846        H  0.66985730  0.63217438  0.96729741     0.33000
H847        H  0.69872594  0.67813558  0.87292333     0.32000
H848        H  0.73434301  0.54447282  0.95445040     0.36000
H849        H  0.76828049  0.58785417  0.96833922     0.28700
H850        H  0.65338889  0.56778611  0.76910833     0.32900
H851        H  0.67290902  0.64021842  0.80447112     0.35800
H852        H  0.64219778  0.57186107  0.93906081     0.28400
H853        H  0.77363504  0.61212589  0.96099146     0.41300
H854        H  0.76773582  0.55681134  0.78599940     0.31300
H855        H  0.74725814  0.52516201  0.86586580     0.38900
H856        H  0.68892720  0.66346380  0.90185784     0.30800
H857        H  0.75149729  0.61726438  0.77601209     0.30900
H858        H  0.65312543  0.59303741  0.77008729     0.31100
Zr859      Zr  0.67096237  0.57900462  0.32491597     2.17500
O860        O  0.64281904  0.58271426  0.28206400    -0.51200
O861        O  0.65485324  0.54346486  0.32448002    -0.74400
O862        O  0.68379504  0.57681298  0.26577513    -0.81200
O863        O  0.63428270  0.60198298  0.39528988    -0.83000
O864        O  0.72003375  0.57440436  0.26481181    -0.78600
O865        O  0.63711824  0.59590700  0.33818319    -0.90200
O866        O  0.67366844  0.52135132  0.35991530    -0.76200
O867        O  0.70133496  0.55634318  0.33127055    -0.85700
O868        O  0.66907296  0.56523873  0.38218417    -0.85400
O869        O  0.70103456  0.60234610  0.31473680    -0.72100
O870        O  0.67120923  0.60978776  0.36124534    -0.84300
Zr871      Zr  0.73065722  0.59537072  0.41694048     2.26400
Zr872      Zr  0.73160656  0.57963101  0.32332430     2.06300
Zr873      Zr  0.66987935  0.59581152  0.41857737     2.10000
Zr874      Zr  0.69970113  0.54287171  0.38855821     1.78800
O875        O  0.66004496  0.62968602  0.44468605    -0.93100
O876        O  0.72234613  0.51671503  0.35989976    -0.40900
O877        O  0.70010854  0.57272607  0.42634082    -0.77500
O878        O  0.73060644  0.56460282  0.38039727    -0.96200
O879        O  0.73264697  0.60988078  0.36033295    -0.89500
O880        O  0.70049220  0.61846780  0.41048958    -0.92300
C881        C  0.65851277  0.52526126  0.33892760     1.01400
C882        C  0.62656586  0.60160520  0.36482106     1.14300
C883        C  0.70177302  0.57503256  0.25001432     1.05100
O884        O  0.74971126  0.54867881  0.29926697    -0.94500
O885        O  0.76798524  0.57703296  0.34416053    -0.90200
O886        O  0.76653196  0.58351263  0.40134426    -0.83400
C887        C  0.77656910  0.57832888  0.37387171     1.11800
O888        O  0.68077969  0.65118191  0.31030971    -0.96500
Zr889      Zr  0.70197854  0.63201451  0.35306685     1.88900
O890        O  0.74545295  0.63136319  0.41889260    -0.73100
O891        O  0.75199492  0.60586402  0.28976951    -0.52400
O892        O  0.72367375  0.64798498  0.30735536    -0.97100
O893        O  0.68052505  0.66090029  0.37695427    -0.54300
O894        O  0.72872706  0.65346140  0.38091253    -0.73600
C895        C  0.74312324  0.64946781  0.40330542     0.98700
O896        O  0.75382002  0.58987882  0.46650955    -0.62500
O897        O  0.64164737  0.57676186  0.44962360    -0.57300
O898        O  0.71826332  0.59376885  0.47609898    -0.93900
O899        O  0.68196055  0.59226821  0.47754115    -0.92400
O900        O  0.67950168  0.52201572  0.43086818    -0.92700
O901        O  0.71978639  0.52443633  0.43350712    -0.91500
C902        C  0.70033389  0.59227719  0.49210991     1.17500
H903        H  0.65596687  0.55741073  0.38641883     0.33500
H904        H  0.74257300  0.55519786  0.38459895     0.44300
H905        H  0.70087778  0.62980647  0.42710632     0.37900
H906        H  0.70090450  0.60841903  0.29183751     0.34400
H907        H  0.73645225  0.51761657  0.37120022     0.26100
H908        H  0.76143326  0.59714799  0.27502001     0.32100
H909        H  0.72747209  0.66248837  0.31541839     0.38000
H910        H  0.66556099  0.52943873  0.43265484     0.32400
H911        H  0.64822456  0.56301951  0.45693846     0.31300
H912        H  0.64712766  0.62627290  0.45847366     0.33000
H913        H  0.68481500  0.66173051  0.40129053     0.32000
H914        H  0.72992750  0.53535341  0.44191368     0.36000
H915        H  0.75833364  0.57466295  0.46577732     0.28700
H916        H  0.64391897  0.56999729  0.26720662     0.32900
H917        H  0.67107709  0.64014477  0.30103309     0.35800
H918        H  0.63958324  0.58482145  0.47108242     0.28400
H919        H  0.76696427  0.59829689  0.46177501     0.41300
H920        H  0.73887542  0.53709434  0.29998201     0.31300
H921        H  0.71656708  0.50257524  0.36723581     0.38900
H922        H  0.66577273  0.65513105  0.37776538     0.30800
H923        H  0.74153037  0.61238057  0.27375737     0.30900
H924        H  0.64687123  0.59510433  0.26728050     0.31100
Zr925      Zr  0.07767845  0.17713027  0.00609882     2.17500
O926        O  0.08408801  0.15001104  0.05069930    -0.51200
O927        O  0.04273030  0.16017815  0.00888554    -0.74400
O928        O  0.07516983  0.19061143  0.06468881    -0.81200
O929        O  0.10321404  0.14115381  0.93814335    -0.83000
O930        O  0.07074901  0.22682608  0.06430296    -0.78600
O931        O  0.09352508  0.14260649  0.99434951    -0.90200
O932        O  0.02289722  0.17286781  0.96440966    -0.76200
O933        O  0.05292121  0.20554735  0.99671630    -0.85700
O934        O  0.06614629  0.17357549  0.94825574    -0.85400
O935        O  0.09823167  0.20912751  0.01497910    -0.72100
O936        O  0.10910596  0.17887941  0.97036106    -0.84300
Zr937      Zr  0.09320547  0.23758298  0.91146424     2.26400
Zr938      Zr  0.07335228  0.23773261  0.00422469     2.06300
Zr939      Zr  0.09713187  0.17654301  0.91240165     2.10000
Zr940      Zr  0.04197654  0.20235266  0.93852760     1.78800
O941        O  0.13207111  0.16843363  0.88811980    -0.93100
O942        O  0.01082756  0.21896136  0.96498445    -0.40900
O943        O  0.07278646  0.20548693  0.90248217    -0.77500
O944        O  0.06117411  0.23505131  0.94604663    -0.96200
O945        O  0.10489281  0.24067001  0.96925020    -0.89500
O946        O  0.11760521  0.20858090  0.92030822    -0.92300
C947        C  0.02604339  0.16030140  0.99001517     1.01400
C948        C  0.10090880  0.13273247  0.96825104     1.14300
C949        C  0.07301642  0.20867711  0.07987932     1.05100
O950        O  0.03827027  0.25028903  0.02243933    -0.94500
O951        O  0.06758094  0.27331547  0.98040069    -0.90200
O952        O  0.07836585  0.27273198  0.92460614    -0.83400
C953        C  0.07019890  0.28201916  0.95072642     1.11800
O954        O  0.14680634  0.18639711  0.01740442    -0.96500
Zr955      Zr  0.12869013  0.21122934  0.97847632     1.88900
O956        O  0.12921149  0.25309872  0.90927374    -0.73100
O957        O  0.09300918  0.26256184  0.04020951    -0.52400
O958        O  0.14369043  0.22838002  0.02869762    -0.97100
O959        O  0.16120753  0.19766702  0.95166450    -0.54300
O960        O  0.14701639  0.24229677  0.95702170    -0.73600
C961        C  0.14510945  0.25388386  0.92999499     0.98700
O962        O  0.09036075  0.26133475  0.86131147    -0.62500
O963        O  0.08145907  0.14670616  0.88150115    -0.57300
O964        O  0.09061800  0.22496126  0.85263741    -0.93900
O965        O  0.09269994  0.18856345  0.85290658    -0.92400
O966        O  0.02859079  0.18090495  0.89150906    -0.92700
O967        O  0.02114904  0.22295750  0.89694886    -0.91500
C968        C  0.09058610  0.20680045  0.83739300     1.17500
H969        H  0.05959021  0.15974017  0.94464443     0.33500
H970        H  0.05099052  0.24612519  0.94033024     0.44300
H971        H  0.12942268  0.20955723  0.90431362     0.37900
H972        H  0.10415487  0.20983550  0.03767214     0.34400
H973        H  0.99850753  0.21048197  0.95682590     0.26100
H974        H  0.09849054  0.27391689  0.02447585     0.32100
H975        H  0.13398559  0.24056515  0.03329086     0.38000
H976        H  0.03084269  0.16578434  0.89875684     0.32400
H977        H  0.06604538  0.15012497  0.88007504     0.31300
H978        H  0.14171580  0.16778468  0.90814552     0.33000
H979        H  0.17283764  0.20179245  0.96740834     0.32000
H980        H  0.03036364  0.22388522  0.87626560     0.36000
H981        H  0.07525835  0.26608936  0.86043637     0.28700
H982        H  0.07136804  0.15014619  0.06590921     0.32900
H983        H  0.13604392  0.17520559  0.02296861     0.35800
H984        H  0.08682192  0.14800412  0.85765065     0.28400
H985        H  0.09865190  0.27437715  0.86681551     0.41300
H986        H  0.03204970  0.23816534  0.03578871     0.31300
H987        H  0.01183435  0.21521845  0.98967608     0.38900
H988        H  0.16359696  0.20680559  0.93103305     0.30800
H989        H  0.08189712  0.26976669  0.05407519     0.30900
H990        H  0.09598739  0.15546772  0.06477308     0.31100
Zr991      Zr  0.07459197  0.17764859  0.50497532     2.17500
O992        O  0.07607461  0.14911238  0.54853348    -0.51200
O993        O  0.03829308  0.16334894  0.50498194    -0.74400
O994        O  0.07194912  0.19044297  0.56369888    -0.81200
O995        O  0.10210098  0.14067977  0.44095265    -0.83000
O996        O  0.06948907  0.22682725  0.56347297    -0.78600
O997        O  0.09030019  0.14281988  0.49603202    -0.90200
O998        O  0.01933063  0.17962005  0.46247155    -0.76200
O999        O  0.05170911  0.20744429  0.49416843    -0.85700
O1000       O  0.06448830  0.17474409  0.44634862    -0.85400
O1001       O  0.09699847  0.20828977  0.51518385    -0.72100
O1002       O  0.10729468  0.17798848  0.47213911    -0.84300
Zr1003     Zr  0.09599416  0.23695196  0.41177297     2.26400
Zr1004     Zr  0.07381719  0.23824370  0.50353437     2.06300
Zr1005     Zr  0.09692880  0.17569967  0.41345632     2.10000
Zr1006     Zr  0.04248943  0.20520657  0.43501335     1.78800
O1007       O  0.13185877  0.16488478  0.39201278    -0.93100
O1008       O  0.01366722  0.22838695  0.45457083    -0.40900
O1009       O  0.07450993  0.20583759  0.40181029    -0.77500
O1010       O  0.06312148  0.23667290  0.44449174    -0.96200
O1011       O  0.10625046  0.23961432  0.47023807    -0.89500
O1012       O  0.11875184  0.20686540  0.42192165    -0.92300
C1013       C  0.02135534  0.16609271  0.48709642     1.01400
C1014       C  0.09865986  0.13268002  0.47103844     1.14300
C1015       C  0.07041153  0.20849865  0.57897359     1.05100
O1016       O  0.03793462  0.25107391  0.51617151    -0.94500
O1017       O  0.07272296  0.27472932  0.48015540    -0.90200
O1018       O  0.08278748  0.27256666  0.42421479    -0.83400
C1019       C  0.07591417  0.28294822  0.45015605     1.11800
O1020       O  0.14662920  0.18453496  0.51981168    -0.96500
Zr1021     Zr  0.12862413  0.20936351  0.48063997     1.88900
O1022       O  0.13194385  0.25258706  0.41233029    -0.73100
O1023       O  0.09058931  0.26178401  0.54481459    -0.52400
O1024       O  0.14097585  0.22766601  0.53165808    -0.97100
O1025       O  0.16085226  0.19376971  0.45577569    -0.54300
O1026       O  0.14881539  0.23992349  0.45987152    -0.73600
C1027       C  0.14736541  0.25267132  0.43398668     0.98700
O1028       O  0.09404793  0.26012164  0.36085798    -0.62500
O1029       O  0.07954879  0.14834091  0.37921290    -0.57300
O1030       O  0.09447716  0.22404159  0.35307752    -0.93900
O1031       O  0.09542782  0.18758604  0.35367568    -0.92400
O1032       O  0.02476192  0.18323001  0.39255771    -0.92700
O1033       O  0.02886660  0.22409740  0.38456772    -0.91500
C1034       C  0.09426033  0.20583999  0.33796161     1.17500
H1035       H  0.05692521  0.16148519  0.44245524     0.33500
H1036       H  0.05377435  0.24842170  0.43846090     0.44300
H1037       H  0.13095421  0.20720824  0.40661902     0.37900
H1038       H  0.10236730  0.20853597  0.53833779     0.34400
H1039       H  0.00096861  0.22365544  0.44162599     0.26100
H1040       H  0.10151942  0.26979685  0.53146784     0.32100
H1041       H  0.13326775  0.24154053  0.53133909     0.38000
H1042       H  0.03488694  0.17135470  0.38823821     0.32400
H1043       H  0.09119196  0.13850241  0.37237493     0.31300
H1044       H  0.12906591  0.15932493  0.36880409     0.33000
H1045       H  0.16524390  0.20367417  0.43696179     0.32000
H1046       H  0.04126977  0.23230876  0.37550152     0.36000
H1047       H  0.07909276  0.26530984  0.35976883     0.28700
H1048       H  0.06261183  0.15016899  0.56186364     0.32900
H1049       H  0.16102956  0.19067633  0.52349301     0.35800
H1050       H  0.07066928  0.13980824  0.39546201     0.28400
H1051       H  0.10269722  0.27298323  0.36601188     0.41300
H1052       H  0.03415723  0.24458156  0.53869166     0.31300
H1053       H  0.01076284  0.22361000  0.47845927     0.38900
H1054       H  0.15586404  0.18070505  0.44408347     0.30800
H1055       H  0.07952823  0.27260621  0.55020853     0.30900
H1056       H  0.08754530  0.15311256  0.56466380     0.31100
Zr1057     Zr  0.33836110  0.43467445  0.83085966     2.17500
O1058       O  0.36919132  0.43205085  0.79255080    -0.51200
O1059       O  0.34780097  0.47265845  0.82396366    -0.74400
O1060       O  0.32783367  0.43447421  0.77043308    -0.81200
O1061       O  0.37289139  0.41054168  0.90374266    -0.83000
O1062       O  0.29157710  0.43487984  0.76748587    -0.78600
O1063       O  0.37366657  0.42253117  0.84831503    -0.90200
O1064       O  0.32775501  0.49199172  0.86073607    -0.76200
O1065       O  0.30691617  0.45574604  0.83672297    -0.85700
O1066       O  0.33842034  0.44685378  0.88859722    -0.85400
O1067       O  0.30973666  0.40988675  0.81929357    -0.72100
O1068       O  0.33816302  0.40324359  0.86752056    -0.84300
Zr1069     Zr  0.27611042  0.41305791  0.91872754     2.26400
Zr1070     Zr  0.27806267  0.43141764  0.82574380     2.06300
Zr1071     Zr  0.33688983  0.41553642  0.92520182     2.10000
Zr1072     Zr  0.30675847  0.46742676  0.89466522     1.78800
O1073       O  0.34938591  0.38192044  0.95067697    -0.93100
O1074       O  0.28069261  0.49457780  0.87797490    -0.40900
O1075       O  0.30524783  0.43662854  0.93152160    -0.77500
O1076       O  0.27694807  0.44492569  0.88306389    -0.96200
O1077       O  0.27715841  0.40013482  0.86169143    -0.89500
O1078       O  0.30764149  0.39156778  0.91497990    -0.92300
C1079       C  0.34179462  0.49050844  0.83698970     1.01400
C1080       C  0.38243884  0.41437458  0.87516778     1.14300
C1081       C  0.31020685  0.43480913  0.75356085     1.05100
O1082       O  0.26379614  0.46395661  0.79949156    -0.94500
O1083       O  0.24107529  0.43374121  0.84569695    -0.90200
O1084       O  0.24079134  0.42589669  0.90280153    -0.83400
C1085       C  0.23159924  0.43195636  0.87496352     1.11800
O1086       O  0.33766238  0.36151136  0.82642528    -0.96500
Zr1087     Zr  0.30902685  0.37948458  0.85727467     1.88900
O1088       O  0.26255976  0.37647218  0.91761114    -0.73100
O1089       O  0.25621915  0.40780560  0.79097220    -0.52400
O1090       O  0.29704482  0.36275618  0.80469310    -0.97100
O1091       O  0.32397544  0.34873770  0.88821778    -0.54300
O1092       O  0.27778051  0.35901926  0.87300489    -0.73600
C1093       C  0.26388605  0.36073712  0.89689874     0.98700
O1094       O  0.24620506  0.41282662  0.95924722    -0.62500
O1095       O  0.36047958  0.43660993  0.96128350    -0.57300
O1096       O  0.28662446  0.41566755  0.97875015    -0.93900
O1097       O  0.32280914  0.41614255  0.98324860    -0.92400
O1098       O  0.33101677  0.48467500  0.93444453    -0.92700
O1099       O  0.28901587  0.48379746  0.94342539    -0.91500
C1100       C  0.30392827  0.41650567  0.99627760     1.17500
H1101       H  0.35102227  0.45534340  0.89290048     0.33500
H1102       H  0.26483250  0.45420151  0.88657143     0.44300
H1103       H  0.30723910  0.37987915  0.93153723     0.37900
H1104       H  0.31078143  0.40371308  0.79679483     0.34400
H1105       H  0.28750232  0.50841368  0.88367960     0.26100
H1106       H  0.24692660  0.41759699  0.77749392     0.32100
H1107       H  0.28320222  0.36973869  0.79951683     0.38000
H1108       H  0.33338168  0.47379990  0.95279465     0.32400
H1109       H  0.37092411  0.42613404  0.97059618     0.31300
H1110       H  0.36391712  0.38509363  0.95919957     0.33000
H1111       H  0.31344008  0.34511969  0.90638848     0.32000
H1112       H  0.27415674  0.47835732  0.94257134     0.36000
H1113       H  0.24865527  0.40049535  0.97504127     0.28700
H1114       H  0.36747445  0.44361595  0.77510760     0.32900
H1115       H  0.34565910  0.37326685  0.81479263     0.35800
H1116       H  0.36893346  0.44575635  0.94530182     0.28400
H1117       H  0.24777354  0.42576724  0.97346620     0.41300
H1118       H  0.25211062  0.45891730  0.78456897     0.31300
H1119       H  0.28059106  0.49425755  0.85261310     0.38900
H1120       H  0.33643494  0.35452430  0.90061765     0.30800
H1121       H  0.26614875  0.40169640  0.77385846     0.30900
H1122       H  0.36724137  0.41852715  0.77994267     0.31100
Zr1123     Zr  0.33231760  0.43647305  0.32372963     2.17500
O1124       O  0.35695521  0.42777992  0.27714967    -0.51200
O1125       O  0.34852508  0.47210896  0.31699451    -0.74400
O1126       O  0.31665220  0.43787267  0.26651945    -0.81200
O1127       O  0.37073874  0.41296315  0.39097341    -0.83000
O1128       O  0.28038476  0.43697993  0.26954626    -0.78600
O1129       O  0.36700365  0.42036008  0.33410819    -0.90200
O1130       O  0.33310621  0.49394395  0.35619989    -0.76200
O1131       O  0.30299806  0.46015503  0.33275743    -0.85700
O1132       O  0.33714440  0.45056794  0.37972619    -0.85400
O1133       O  0.30110695  0.41390532  0.31960735    -0.72100
O1134       O  0.33304667  0.40609199  0.36237569    -0.84300
Zr1135     Zr  0.27586613  0.42143369  0.42374715     2.26400
Zr1136     Zr  0.27177602  0.43797041  0.33018734     2.06300
Zr1137     Zr  0.33667815  0.42045889  0.41852517     2.10000
Zr1138     Zr  0.30737899  0.47354273  0.38915298     1.78800
O1139       O  0.34997898  0.38820441  0.44715321    -0.93100
O1140       O  0.28689840  0.50267912  0.36289634    -0.40900
O1141       O  0.30698668  0.44370072  0.42830950    -0.77500
O1142       O  0.27537792  0.45251710  0.38637567    -0.96200
O1143       O  0.27191076  0.40737193  0.36787217    -0.89500
O1144       O  0.30558218  0.39801549  0.41550570    -0.92300
C1145       C  0.34628240  0.49025387  0.33185498     1.01400
C1146       C  0.37779473  0.41360803  0.35998205     1.14300
C1147       C  0.29806189  0.43711769  0.25275677     1.05100
O1148       O  0.26181673  0.47433085  0.31320729    -0.94500
O1149       O  0.23602368  0.43906094  0.35454418    -0.90200
O1150       O  0.23926003  0.43196760  0.41140588    -0.83400
C1151       C  0.22821209  0.43700820  0.38488055     1.11800
O1152       O  0.32143164  0.36573815  0.31457315    -0.96500
Zr1153     Zr  0.30175274  0.38442059  0.35914962     1.88900
O1154       O  0.25969235  0.38575588  0.42907340    -0.73100
O1155       O  0.24171366  0.42227227  0.29995090    -0.52400
O1156       O  0.28072810  0.36519103  0.31716095    -0.97100
O1157       O  0.32314397  0.35596063  0.38527705    -0.54300
O1158       O  0.27352726  0.36470149  0.38732836    -0.73600
C1159       C  0.26040523  0.36837217  0.41174461     0.98700
O1160       O  0.25544279  0.43170179  0.47444970    -0.62500
O1161       O  0.36277987  0.44287780  0.44740695    -0.57300
O1162       O  0.29032742  0.42132079  0.48133268    -0.93900
O1163       O  0.32659386  0.42115588  0.47855442    -0.92400
O1164       O  0.33018942  0.48988706  0.43202048    -0.92700
O1165       O  0.28919368  0.49466052  0.43251725    -0.91500
C1166       C  0.30887719  0.42153937  0.49524742     1.17500
H1167       H  0.35060086  0.45807974  0.38144639     0.33500
H1168       H  0.26355779  0.46188619  0.39158760     0.44300
H1169       H  0.30582878  0.38670177  0.43266427     0.37900
H1170       H  0.30009814  0.40717587  0.29760988     0.34400
H1171       H  0.29297267  0.51594635  0.37260363     0.26100
H1172       H  0.23968365  0.43126861  0.27909512     0.32100
H1173       H  0.26949557  0.37551265  0.31012986     0.38000
H1174       H  0.34496409  0.48598198  0.42539041     0.32400
H1175       H  0.37078551  0.43285129  0.46250452     0.31300
H1176       H  0.36147652  0.39329220  0.46239565     0.33000
H1177       H  0.31447415  0.35052711  0.40484475     0.32000
H1178       H  0.27750811  0.48527596  0.44109515     0.36000
H1179       H  0.25023892  0.44646233  0.46973544     0.28700
H1180       H  0.35682503  0.44024442  0.26110449     0.32900
H1181       H  0.32885220  0.37725181  0.30141353     0.35800
H1182       H  0.37325481  0.44730350  0.42957276     0.28400
H1183       H  0.24247857  0.42257235  0.47482514     0.41300
H1184       H  0.27084058  0.47774798  0.29293558     0.31300
H1185       H  0.29156146  0.50308355  0.33860465     0.38900
H1186       H  0.33528167  0.36350285  0.39594627     0.30800
H1187       H  0.24706463  0.40835946  0.29159177     0.30900
H1188       H  0.35030649  0.41585063  0.26447894     0.31100
Zr1189     Zr  0.03268089  0.48706229  0.94485070     2.17500
O1190       O  0.06317723  0.48137970  0.98268373    -0.51200
O1191       O  0.02913323  0.44816752  0.94349637    -0.74400
O1192       O  0.02214018  0.48596971  0.00558864    -0.81200
O1193       O  0.07026761  0.48906323  0.86721018    -0.83000
O1194       O  0.98915481  0.50093628  0.01104122    -0.78600
O1195       O  0.06894134  0.48110063  0.92429375    -0.90200
O1196       O  0.00435588  0.43942956  0.90369959    -0.76200
O1197       O  0.99502448  0.48173740  0.94160478    -0.85700
O1198       O  0.02575412  0.47755488  0.88691228    -0.85400
O1199       O  0.01727424  0.52105813  0.96014693    -0.72100
O1200       O  0.04542966  0.51629110  0.90954589    -0.84300
Zr1201     Zr  0.98464193  0.53530726  0.86203536     2.26400
Zr1202     Zr  0.97935343  0.51576118  0.95509238     2.06300
Zr1203     Zr  0.03751764  0.50705186  0.85171548     2.10000
Zr1204     Zr  0.98817355  0.47247266  0.88370670     1.78800
O1205       O  0.06569187  0.53201475  0.83461560    -0.93100
O1206       O  0.95971472  0.45281655  0.91329648    -0.40900
O1207       O  0.99991364  0.50144297  0.84733096    -0.77500
O1208       O  0.97174878  0.50584465  0.89719285    -0.96200
O1209       O  0.99162072  0.54485084  0.91982235    -0.89500
O1210       O  0.02217225  0.54099564  0.86502233    -0.92300
C1211       C  0.01879237  0.43451676  0.92562551     1.01400
C1212       C  0.07849683  0.48190307  0.89509250     1.14300
C1213       C  0.00576467  0.49156808  0.02349403     1.05100
O1214       O  0.94888034  0.49542537  0.97704380    -0.94500
O1215       O  0.94579821  0.53309837  0.93869794    -0.90200
O1216       O  0.94890586  0.54258495  0.88229837    -0.83400
C1217       C  0.93840267  0.54087427  0.91043060     1.11800
O1218       O  0.06182446  0.55119935  0.95692958    -0.96500
Zr1219     Zr  0.02917682  0.54976691  0.92318736     1.88900
O1220       O  0.98696502  0.57432131  0.86524615    -0.73100
O1221       O  0.97444569  0.54529056  0.99463584    -0.52400
O1222       O  0.02828936  0.57170026  0.97439094    -0.97100
O1223       O  0.05490305  0.57003031  0.88841556    -0.54300
O1224       O  0.00757885  0.58112915  0.91135420    -0.73600
C1225       C  0.99425003  0.58695707  0.88817354     0.98700
O1226       O  0.95855707  0.53722234  0.81572362    -0.62500
O1227       O  0.04673840  0.48195305  0.80664265    -0.57300
O1228       O  0.99411445  0.53624065  0.80128047    -0.93900
O1229       O  0.02484619  0.51720819  0.79513516    -0.92400
O1230       O  0.99488250  0.45368957  0.83044107    -0.92700
O1231       O  0.95541022  0.46857087  0.85087358    -0.91500
C1232       C  0.00889205  0.52772078  0.78295495     1.17500
H1233       H  0.03351347  0.46483648  0.88036768     0.33500
H1234       H  0.95658936  0.50374579  0.89421944     0.44300
H1235       H  0.02661801  0.55207813  0.84892767     0.37900
H1236       H  0.02099171  0.52475780  0.98331744     0.34400
H1237       H  0.96037288  0.43812799  0.90396623     0.26100
H1238       H  0.96754072  0.53873136  0.01513283     0.32100
H1239       H  0.03318865  0.58608673  0.96659723     0.38000
H1240       H  0.98682909  0.44006252  0.83287232     0.32400
H1241       H  0.06244867  0.48285781  0.80379777     0.31300
H1242       H  0.06712023  0.53023849  0.80952605     0.33000
H1243       H  0.06315689  0.57860032  0.90494418     0.32000
H1244       H  0.95654997  0.47959336  0.83241392     0.36000
H1245       H  0.94753823  0.52633819  0.82154652     0.28700
H1246       H  0.05898070  0.46984890  0.99910184     0.32900
H1247       H  0.06171572  0.53773516  0.97073923     0.35800
H1248       H  0.04405506  0.46756009  0.81683123     0.28400
H1249       H  0.95127267  0.55124297  0.81785467     0.41300
H1250       H  0.94319733  0.48792052  0.95681340     0.31300
H1251       H  0.96466662  0.45116636  0.93726376     0.38900
H1252       H  0.04628427  0.58077669  0.87565425     0.30800
H1253       H  0.98905681  0.54898088  0.00222864     0.30900
H1254       H  0.06420164  0.49454912  0.99643883     0.31100
Zr1255     Zr  0.97524158  0.52591409  0.44556211     2.17500
O1256       O  0.94318058  0.52373877  0.48109093    -0.51200
O1257       O  0.97644438  0.56458391  0.44830824    -0.74400
O1258       O  0.98543442  0.52879804  0.50588632    -0.81200
O1259       O  0.93925993  0.52297216  0.36703428    -0.83000
O1260       O  0.01928648  0.51602763  0.51171009    -0.78600
O1261       O  0.94012040  0.53394188  0.42234917    -0.90200
O1262       O  0.00107384  0.57711576  0.41007609    -0.76200
O1263       O  0.01228843  0.53444881  0.44354878    -0.85700
O1264       O  0.98248534  0.53757716  0.38828268    -0.85400
O1265       O  0.99308243  0.49310764  0.46131768    -0.72100
O1266       O  0.96524776  0.49672055  0.40948532    -0.84300
Zr1267     Zr  0.02815368  0.48371623  0.36371664     2.26400
Zr1268     Zr  0.03054145  0.50167007  0.45683739     2.06300
Zr1269     Zr  0.97370527  0.50812561  0.35223792     2.10000
Zr1270     Zr  0.01941150  0.54600354  0.38641711     1.78800
O1271       O  0.94926481  0.48125846  0.33024180    -0.93100
O1272       O  0.04700667  0.56534158  0.41735048    -0.40900
O1273       O  0.01083846  0.51688754  0.34913583    -0.77500
O1274       O  0.03839500  0.51343818  0.39923559    -0.96200
O1275       O  0.02079364  0.47264157  0.42116225    -0.89500
O1276       O  0.99114554  0.47503634  0.36603774    -0.92300
C1277       C  0.98627897  0.57985355  0.43258050     1.01400
C1278       C  0.93069851  0.53150817  0.39346558     1.14300
C1279       C  0.00216554  0.52448783  0.52381541     1.05100
O1280       O  0.05950245  0.52482631  0.47529695    -0.94500
O1281       O  0.06398646  0.48343267  0.44245726    -0.90200
O1282       O  0.06384550  0.47777878  0.38519876    -0.83400
C1283       C  0.07285055  0.47691840  0.41462236     1.11800
O1284       O  0.94955434  0.45880415  0.45256544    -0.96500
Zr1285     Zr  0.98383492  0.46439038  0.42387983     1.88900
O1286       O  0.03022186  0.44467093  0.37069892    -0.73100
O1287       O  0.03700631  0.47469116  0.50144684    -0.52400
O1288       O  0.98574573  0.44331487  0.47684015    -0.97100
O1289       O  0.96250253  0.44068503  0.38846364    -0.54300
O1290       O  0.00849514  0.43520285  0.41529381    -0.73600
C1291       C  0.02348339  0.43136532  0.39380677     0.98700
O1292       O  0.05469524  0.48498000  0.31770373    -0.62500
O1293       O  0.96277190  0.53454900  0.30908818    -0.57300
O1294       O  0.01867984  0.48104927  0.30284794    -0.93900
O1295       O  0.98777598  0.49971339  0.29610369    -0.92400
O1296       O  0.00986592  0.56644689  0.33512041    -0.92700
O1297       O  0.05067895  0.55526175  0.35180961    -0.91500
C1298       C  0.00381059  0.48935569  0.28414257     1.17500
H1299       H  0.97397677  0.54994829  0.38205692     0.33500
H1300       H  0.05349648  0.51639141  0.39677233     0.44300
H1301       H  0.98774891  0.46390827  0.34991595     0.37900
H1302       H  0.98939988  0.48891515  0.48451626     0.34400
H1303       H  0.04575694  0.58041538  0.40921187     0.26100
H1304       H  0.04786601  0.48120295  0.51649538     0.32100
H1305       H  0.00030446  0.44599188  0.48567360     0.38000
H1306       H  0.01445676  0.58131213  0.33990615     0.32400
H1307       H  0.94857382  0.52967674  0.30118718     0.31300
H1308       H  0.94588823  0.48627605  0.30668231     0.33000
H1309       H  0.94916633  0.44876253  0.38384942     0.32000
H1310       H  0.05523046  0.54152531  0.34160748     0.36000
H1311       H  0.06501727  0.49623147  0.32429948     0.28700
H1312       H  0.94562049  0.53316252  0.50091473     0.32900
H1313       H  0.94594763  0.47292416  0.46237237     0.35800
H1314       H  0.95986663  0.54788222  0.32181653     0.28400
H1315       H  0.06273766  0.47133510  0.31940709     0.41300
H1316       H  0.06592070  0.53056665  0.45381736     0.31300
H1317       H  0.04192282  0.56563938  0.44141658     0.38900
H1318       H  0.95810250  0.42878524  0.40404869     0.30800
H1319       H  0.02378870  0.47421578  0.51549294     0.30900
H1320       H  0.94319554  0.50892487  0.49051484     0.31100
C1321       C  0.00246404  0.55029110  0.69189110    -0.05400
C1322       C  0.00389394  0.53140038  0.67241642     0.08800
C1323       C  0.00695202  0.51144726  0.68925886    -0.02800
C1324       C  0.00832547  0.51031074  0.72528513    -0.01000
C1325       C  0.00707167  0.52921764  0.74493518    -0.04600
C1326       C  0.00410711  0.54923415  0.72803418     0.02400
C1327       C  0.00241078  0.53226722  0.63403405     0.09200
C1328       C  0.00889172  0.49201203  0.66936589     0.35100
C1329       C  0.00349295  0.56882317  0.74766417     0.38600
C1330       C  0.01999961  0.53931283  0.61411623    -0.05000
C1331       C  0.01944791  0.53798111  0.57799736     0.02200
C1332       C  0.00157116  0.52877033  0.56145413    -0.04600
C1333       C  0.98377992  0.52214789  0.58162229    -0.00800
C1334       C  0.98404429  0.52437204  0.61758328    -0.03400
C1335       C  0.03899628  0.54726907  0.63097284     0.35900
C1336       C  0.96580443  0.51133702  0.56613499     0.39500
C1337       C  0.03737171  0.54619321  0.55806045     0.38600
C1338       C  0.96562489  0.51779326  0.63793627     0.35500
C1339       C  0.99951696  0.57081565  0.67456599     0.36200
C1340       C  0.01036989  0.48946269  0.74205157     0.39500
N1341       N  0.05177882  0.55288569  0.54255797    -0.38600
N1342       N  0.05411557  0.55358523  0.64454083    -0.40200
N1343       N  0.95137022  0.50233483  0.55473006    -0.37900
N1344       N  0.95094730  0.51250185  0.65413138    -0.40300
N1345       N  0.01041543  0.47652617  0.65349347    -0.40100
N1346       N  0.01192797  0.47274696  0.75512026    -0.37700
N1347       N  0.00307804  0.58446873  0.76330832    -0.38800
N1348       N  0.99731527  0.58713907  0.66049575    -0.40400
C1349       C  0.00904710  0.46652135  0.19346723    -0.05400
C1350       C  0.00513954  0.48500785  0.17300815     0.08800
C1351       C  0.00107167  0.50473650  0.18913719    -0.02800
C1352       C  0.00168424  0.50620613  0.22518351    -0.01000
C1353       C  0.00513906  0.48766565  0.24590906    -0.04600
C1354       C  0.00869997  0.46775222  0.22976721     0.02400
C1355       C  0.00616492  0.48426006  0.13442097     0.09200
C1356       C  0.99600180  0.52361004  0.16850656     0.35100
C1357       C  0.01122055  0.44839832  0.25041753     0.38600
C1358       C  0.98869966  0.47661965  0.11525024    -0.05000
C1359       C  0.98904658  0.47790130  0.07895843     0.02200
C1360       C  0.00639110  0.48785483  0.06149518    -0.04600
C1361       C  0.02383243  0.49552616  0.08084912    -0.00800
C1362       C  0.02400599  0.49306103  0.11692719    -0.03400
C1363       C  0.97003289  0.46811449  0.13292744     0.35900
C1364       C  0.04083775  0.50760530  0.06411364     0.39500
C1365       C  0.97158213  0.46879365  0.05962112     0.38600
C1366       C  0.04242396  0.50003710  0.13632026     0.35500
C1367       C  0.01345154  0.44625553  0.17706575     0.36200
C1368       C  0.99955167  0.52712127  0.24079838     0.39500
N1369       N  0.95768371  0.46136991  0.04428770    -0.38600
N1370       N  0.95505268  0.46143635  0.14695743    -0.40200
N1371       N  0.05425474  0.51764207  0.05112063    -0.37900
N1372       N  0.05712059  0.50546549  0.15189867    -0.40300
N1373       N  0.99181313  0.53864738  0.15212697    -0.40100
N1374       N  0.99801986  0.54384366  0.25312828    -0.37700
N1375       N  0.01310277  0.43294887  0.26695155    -0.38800
N1376       N  0.01697993  0.43010672  0.16387061    -0.40400
C1377       C  0.13205654  0.46869948  0.43615491    -0.05400
C1378       C  0.13835917  0.45515113  0.40935751     0.08800
C1379       C  0.12292969  0.44639971  0.38759140    -0.02800
C1380       C  0.10134228  0.45233720  0.39093256    -0.01000
C1381       C  0.09501889  0.46776908  0.41562246    -0.04600
C1382       C  0.11044233  0.47491792  0.43956181     0.02400
C1383       C  0.16140904  0.45046046  0.40318855     0.09200
C1384       C  0.12945860  0.43142301  0.36131283     0.35100
C1385       C  0.10449185  0.48875747  0.46760870     0.38600
C1386       C  0.17139998  0.43328856  0.42057144    -0.05000
C1387       C  0.19296054  0.42835537  0.41363264     0.02200
C1388       C  0.20495001  0.44115283  0.39007017    -0.04600
C1389       C  0.19463785  0.45826912  0.37235666    -0.00800
C1390       C  0.17285671  0.46258319  0.37849265    -0.03400
C1391       C  0.15925179  0.42043696  0.44510836     0.35900
C1392       C  0.20632912  0.47192866  0.34837476     0.39500
C1393       C  0.20235574  0.40945716  0.42967734     0.38600
C1394       C  0.16200483  0.47931342  0.35897211     0.35500
C1395       C  0.14801586  0.47649343  0.45983174     0.36200
C1396       C  0.08582951  0.44185862  0.36923264     0.39500
N1397       N  0.20965117  0.39427864  0.44243980    -0.38600
N1398       N  0.14949245  0.41024033  0.46465247    -0.40200
N1399       N  0.21538968  0.48296510  0.32912360    -0.37900
N1400       N  0.15321787  0.49245042  0.34319836    -0.40300
N1401       N  0.13475901  0.41952516  0.34040195    -0.40100
N1402       N  0.07394724  0.43314014  0.35153379    -0.37700
N1403       N  0.10004277  0.49953716  0.49048731    -0.38800
N1404       N  0.16082837  0.48257529  0.47868190    -0.40400
C1405       C  0.17231508  0.43332331  0.89832610    -0.05400
C1406       C  0.16615134  0.45311122  0.88345477     0.08800
C1407       C  0.18130710  0.46580110  0.86567288    -0.02800
C1408       C  0.20272775  0.45901606  0.86351217    -0.01000
C1409       C  0.20891113  0.43884097  0.87739352    -0.04600
C1410       C  0.19360139  0.42611911  0.89524116     0.02400
C1411       C  0.14358500  0.46057377  0.88663265     0.09200
C1412       C  0.17481732  0.48583734  0.84940282     0.35100
C1413       C  0.19960266  0.40570756  0.91073246     0.38600
C1414       C  0.13803246  0.47616136  0.91106037    -0.05000
C1415       C  0.11668555  0.48313117  0.91398299     0.02200
C1416       C  0.10074764  0.47411042  0.89310184    -0.04600
C1417       C  0.10625912  0.45816539  0.86922367    -0.00800
C1418       C  0.12767140  0.45163194  0.86569428    -0.03400
C1419       C  0.15423609  0.48487274  0.93342450     0.35900
C1420       C  0.08979762  0.44787909  0.84912984     0.39500
C1421       C  0.11124595  0.50007811  0.93765131     0.38600
C1422       C  0.13335770  0.43556689  0.84066643     0.35500
C1423       C  0.15658452  0.42044049  0.91678108     0.36200
C1424       C  0.21862269  0.47370088  0.84949125     0.39500
N1425       N  0.10685083  0.51364661  0.95638464    -0.38600
N1426       N  0.16703954  0.49185386  0.95146890    -0.40200
N1427       N  0.07672492  0.43948051  0.83325978    -0.37900
N1428       N  0.13788518  0.42270498  0.82078526    -0.40300
N1429       N  0.16971934  0.50176088  0.83617372    -0.40100
N1430       N  0.23114327  0.48579489  0.83893307    -0.37700
N1431       N  0.20416017  0.38948190  0.92353033    -0.38800
N1432       N  0.14379986  0.41035527  0.93127344    -0.40400
C1433       C  0.29779129  0.44473743  0.65901710    -0.05400
C1434       C  0.31081963  0.42920873  0.64338024     0.08800
C1435       C  0.32421524  0.41606620  0.66355669    -0.02800
C1436       C  0.32451283  0.41828165  0.69946672    -0.01000
C1437       C  0.31125579  0.43369862  0.71548008    -0.04600
C1438       C  0.29791356  0.44694562  0.69494546     0.02400
C1439       C  0.31060116  0.42680816  0.60540027     0.09200
C1440       C  0.33744043  0.40000642  0.64717361     0.35100
C1441       C  0.28455012  0.46315512  0.71058825     0.38600
C1442       C  0.32523779  0.43847283  0.58492331    -0.05000
C1443       C  0.32455793  0.43696163  0.54895844     0.02200
C1444       C  0.30982336  0.42290273  0.53325453    -0.04600
C1445       C  0.29546500  0.41082511  0.55409420    -0.00800
C1446       C  0.29570858  0.41302044  0.59000382    -0.03400
C1447       C  0.34091823  0.45219221  0.60102309     0.35900
C1448       C  0.28050959  0.39596180  0.53880652     0.39500
C1449       C  0.33811232  0.45102990  0.52836867     0.38600
C1450       C  0.28056566  0.40115685  0.61123281     0.35500
C1451       C  0.28427363  0.45844010  0.63794963     0.36200
C1452       C  0.33775940  0.40388665  0.71976895     0.39500
N1453       N  0.34881912  0.46257936  0.51236749    -0.38600
N1454       N  0.35349151  0.46301178  0.61393556    -0.40200
N1455       N  0.26850437  0.38419641  0.52661991    -0.37900
N1456       N  0.26842791  0.39174897  0.62813923    -0.40300
N1457       N  0.34789422  0.38722374  0.63388277    -0.40100
N1458       N  0.34836985  0.39222782  0.73556897    -0.37700
N1459       N  0.27385064  0.47610647  0.72293268    -0.38800
N1460       N  0.27355360  0.46933903  0.62099903    -0.40400
C1461       C  0.31332201  0.40862977  0.09208358    -0.05400
C1462       C  0.29953940  0.42423732  0.10587467     0.08800
C1463       C  0.28673600  0.43686212  0.08389684    -0.02800
C1464       C  0.28828705  0.43451906  0.04809434    -0.01000
C1465       C  0.30194459  0.41872079  0.03407093    -0.04600
C1466       C  0.31414310  0.40551033  0.05635602     0.02400
C1467       C  0.29877205  0.42779289  0.14362788     0.09200
C1468       C  0.27211075  0.45244411  0.09833464     0.35100
C1469       C  0.32707985  0.38828151  0.04266578     0.38600
C1470       C  0.31025259  0.44496576  0.15791779    -0.05000
C1471       C  0.30940683  0.44852003  0.19349140     0.02200
C1472       C  0.29725359  0.43473702  0.21504632    -0.04600
C1473       C  0.28581754  0.41745926  0.20062997    -0.00800
C1474       C  0.28636023  0.41421263  0.16496296    -0.03400
C1475       C  0.32308311  0.45886477  0.13591883     0.35900
C1476       C  0.27460232  0.40209187  0.22246099     0.39500
C1477       C  0.32096047  0.46644292  0.20792324     0.38600
C1478       C  0.27428093  0.39676398  0.15016314     0.35500
C1479       C  0.32696860  0.39608971  0.11468151     0.36200
C1480       C  0.27659380  0.44919348  0.02591366     0.39500
N1481       N  0.33016353  0.48066655  0.21965857    -0.38600
N1482       N  0.33330057  0.46992705  0.11828486    -0.40200
N1483       N  0.26578817  0.38949004  0.23939949    -0.37900
N1484       N  0.26461511  0.38284908  0.13843768    -0.40300
N1485       N  0.26046016  0.46477500  0.11010859    -0.40100
N1486       N  0.26726132  0.46115753  0.00866242    -0.37700
N1487       N  0.33726085  0.37443249  0.03175201    -0.38800
N1488       N  0.33797379  0.38620079  0.13269142    -0.40400
C1489       C  0.05817607  0.38779300  0.43279496    -0.05400
C1490       C  0.05225204  0.36995720  0.41323554     0.08800
C1491       C  0.03813996  0.37262415  0.38529511    -0.02800
C1492       C  0.02943751  0.39300840  0.37764997    -0.01000
C1493       C  0.03465836  0.41066232  0.39816288    -0.04600
C1494       C  0.04920576  0.40803174  0.42555439     0.02400
C1495       C  0.05895924  0.34801553  0.42445071     0.09200
C1496       C  0.03177419  0.35413973  0.36557842     0.35100
C1497       C  0.05428312  0.42584273  0.44756522     0.38600
C1498       C  0.04427896  0.33477240  0.44236193    -0.05000
C1499       C  0.04995837  0.31363964  0.45173399     0.02200
C1500       C  0.07061933  0.30582271  0.44397604    -0.04600
C1501       C  0.08552044  0.31938582  0.42690862    -0.00800
C1502       C  0.07970881  0.34044937  0.41727307    -0.03400
C1503       C  0.02312516  0.34288502  0.45055335     0.35900
C1504       C  0.10679120  0.31160645  0.41873986     0.39500
C1505       C  0.03390619  0.29960947  0.46695575     0.38600
C1506       C  0.09502490  0.35425501  0.39969134     0.35500
C1507       C  0.07272233  0.38509717  0.46145585     0.36200
C1508       C  0.01422279  0.39556583  0.34997577     0.39500
N1509       N  0.02073824  0.28867459  0.47867421    -0.38600
N1510       N  0.00628967  0.34948468  0.45686483    -0.40200
N1511       N  0.12369190  0.30541672  0.41186073    -0.37900
N1512       N  0.10741187  0.36517444  0.38586805    -0.40300
N1513       N  0.02655388  0.33930559  0.35016634    -0.40100
N1514       N  0.00200387  0.39751741  0.32796492    -0.37700
N1515       N  0.05855814  0.43953569  0.46602095    -0.38800
N1516       N  0.08434339  0.38301843  0.48426950    -0.40400
C1517       C  0.19547015  0.28515036  0.40230131    -0.05400
C1518       C  0.19646681  0.30133746  0.42736087     0.08800
C1519       C  0.18116140  0.30155363  0.45401568    -0.02800
C1520       C  0.16528601  0.28551812  0.45601261    -0.01000
C1521       C  0.16404395  0.26954603  0.43070030    -0.04600
C1522       C  0.17903748  0.26956086  0.40357075     0.02400
C1523       C  0.21281396  0.31892597  0.42447267     0.09200
C1524       C  0.18146228  0.31860987  0.47896182     0.35100
C1525       C  0.17775630  0.25342371  0.37724165     0.38600
C1526       C  0.21095407  0.33460338  0.39816639    -0.05000
C1527       C  0.22662830  0.35067512  0.39425878     0.02200
C1528       C  0.24369881  0.35194583  0.41772144    -0.04600
C1529       C  0.24536781  0.33668925  0.44458431    -0.00800
C1530       C  0.23007159  0.32004975  0.44777023    -0.03400
C1531       C  0.19280454  0.33422998  0.37513563     0.35900
C1532       C  0.26325916  0.33765713  0.46802288     0.39500
C1533       C  0.22545700  0.36569894  0.36551582     0.38600
C1534       C  0.23231162  0.30387419  0.47459420     0.35500
C1535       C  0.21145763  0.28454060  0.37527908     0.36200
C1536       C  0.14974348  0.28582828  0.48369459     0.39500
N1537       N  0.22468576  0.37754224  0.34242954    -0.38600
N1538       N  0.17830750  0.33388813  0.35682123    -0.40200
N1539       N  0.27759756  0.33839009  0.48662303    -0.37900
N1540       N  0.23413709  0.29101576  0.49608453    -0.40300
N1541       N  0.18176126  0.33224880  0.49879499    -0.40100
N1542       N  0.13732531  0.28607161  0.50573998    -0.37700
N1543       N  0.17680304  0.24065603  0.35603273    -0.38800
N1544       N  0.22424319  0.28414627  0.35375819    -0.40400
C1545       C  0.03351127  0.38021198  0.96488959    -0.05400
C1546       C  0.03802021  0.36835928  0.93520788     0.08800
C1547       C  0.03561410  0.37787880  0.90254348    -0.02800
C1548       C  0.02905905  0.39941413  0.89943910    -0.01000
C1549       C  0.02468962  0.41153156  0.92917153    -0.04600
C1550       C  0.02685541  0.40177306  0.96194956     0.02400
C1551       C  0.04625578  0.34602284  0.93835274     0.09200
C1552       C  0.04043755  0.36554412  0.87216261     0.35100
C1553       C  0.02198849  0.41374619  0.99265600     0.38600
C1554       C  0.03189282  0.32869194  0.94202618    -0.05000
C1555       C  0.03980558  0.30763886  0.94548800     0.02200
C1556       C  0.06208278  0.30398309  0.94583025    -0.04600
C1557       C  0.07642617  0.32126168  0.94169263    -0.00800
C1558       C  0.06850477  0.34227167  0.93756002    -0.03400
C1559       C  0.00902158  0.33256548  0.94217913     0.35900
C1560       C  0.09928782  0.31743478  0.94280405     0.39500
C1561       C  0.02506307  0.28967778  0.94815361     0.38600
C1562       C  0.08317503  0.36007813  0.93243161     0.35500
C1563       C  0.03604233  0.37018400  0.99842333     0.36200
C1564       C  0.02795738  0.40927280  0.86555630     0.39500
N1565       N  0.01335936  0.27531445  0.95014717    -0.38600
N1566       N  0.99077406  0.33563478  0.94237381    -0.40200
N1567       N  0.11750267  0.31428006  0.94395815    -0.37900
N1568       N  0.09479785  0.37432397  0.92807750    -0.40300
N1569       N  0.04439830  0.35562346  0.84808895    -0.40100
N1570       N  0.02722727  0.41693230  0.83838639    -0.37700
N1571       N  0.01813702  0.42325206  0.01720869    -0.38800
N1572       N  0.03811416  0.36202684  0.02504127    -0.40400
C1573       C  0.23590407  0.30877586  0.92098364    -0.05400
C1574       C  0.21574498  0.31210913  0.90571842     0.08800
C1575       C  0.21185689  0.33087478  0.88611810    -0.02800
C1576       C  0.22800877  0.34642144  0.88221257    -0.01000
C1577       C  0.24757520  0.34382755  0.89967195    -0.04600
C1578       C  0.25157912  0.32497360  0.91892885     0.02400
C1579       C  0.19804022  0.29658255  0.91206239     0.09200
C1580       C  0.19111137  0.33426501  0.87042933     0.35100
C1581       C  0.27162839  0.32247344  0.93706543     0.38600
C1582       C  0.18671974  0.29714938  0.94334544    -0.05000
C1583       C  0.16910902  0.28348854  0.94883386     0.02200
C1584       C  0.16269274  0.26918874  0.92293995    -0.04600
C1585       C  0.17445337  0.26822328  0.89199701    -0.00800
C1586       C  0.19208890  0.28195787  0.88656301    -0.03400
C1587       C  0.19334506  0.31175055  0.96997362     0.35900
C1588       C  0.16941762  0.25212042  0.86681443     0.39500
C1589       C  0.15766314  0.28413332  0.98128531     0.38600
C1590       C  0.20453194  0.28072753  0.85518245     0.35500
C1591       C  0.24050970  0.28858195  0.93833604     0.36200
C1592       C  0.22455055  0.36496004  0.85996346     0.39500
N1593       N  0.14865562  0.28454595  0.00725254    -0.38600
N1594       N  0.19879567  0.32330484  0.99120712    -0.40200
N1595       N  0.16575577  0.23907832  0.84684751    -0.37900
N1596       N  0.21457767  0.27976960  0.83026413    -0.40300
N1597       N  0.17452197  0.33688514  0.85803798    -0.40100
N1598       N  0.22168898  0.37960054  0.84197218    -0.37700
N1599       N  0.28755640  0.32061219  0.95178971    -0.38800
N1600       N  0.24423007  0.27232626  0.95173553    -0.40400
C1601       C  0.06838252  0.19313237  0.74908764    -0.05400
C1602       C  0.07971861  0.20755009  0.72756912     0.08800
C1603       C  0.09487210  0.22155632  0.74201963    -0.02800
C1604       C  0.09861202  0.22119277  0.77772366    -0.01000
C1605       C  0.08706478  0.20692570  0.79949896    -0.04600
C1606       C  0.07168245  0.19310890  0.78489268     0.02400
C1607       C  0.07659034  0.20723709  0.68941004     0.09200
C1608       C  0.10695878  0.23609572  0.71992715     0.35100
C1609       C  0.05844620  0.17947276  0.80665225     0.38600
C1610       C  0.05818225  0.21638732  0.67414614    -0.05000
C1611       C  0.05585353  0.21661627  0.63804521     0.02200
C1612       C  0.07206756  0.20799707  0.61703311    -0.04600
C1613       C  0.09038355  0.19871992  0.63246943    -0.00800
C1614       C  0.09234424  0.19787706  0.66843470    -0.03400
C1615       C  0.04157790  0.22536318  0.69566408     0.35900
C1616       C  0.10776292  0.19081876  0.61134038     0.39500
C1617       C  0.03655952  0.22514483  0.62256390     0.38600
C1618       C  0.11048513  0.18707985  0.68406168     0.35500
C1619       C  0.05367048  0.17791822  0.73415075     0.36200
C1620       C  0.11474918  0.23524125  0.79174169     0.39500
N1621       N  0.02110889  0.23181430  0.61016187    -0.38600
N1622       N  0.02828196  0.23236470  0.71293919    -0.40200
N1623       N  0.12172368  0.18467827  0.59456312    -0.37900
N1624       N  0.12481770  0.17837828  0.69674981    -0.40300
N1625       N  0.11671742  0.24755781  0.70226144    -0.40100
N1626       N  0.12760243  0.24661257  0.80258298    -0.37700
N1627       N  0.04760707  0.16862783  0.82363390    -0.38800
N1628       N  0.04205560  0.16573477  0.72205799    -0.40400
C1629       C  0.09690950  0.19903855  0.16829160    -0.05400
C1630       C  0.08116950  0.20781438  0.18993068     0.08800
C1631       C  0.06266116  0.21720646  0.17542009    -0.02800
C1632       C  0.05993751  0.21779666  0.13942293    -0.01000
C1633       C  0.07550498  0.20857495  0.11780474    -0.04600
C1634       C  0.09417230  0.19950169  0.13246265     0.02400
C1635       C  0.08442253  0.20741224  0.22801456     0.09200
C1636       C  0.04643728  0.22626086  0.19759034     0.35100
C1637       C  0.11116301  0.19147407  0.11066336     0.38600
C1638       C  0.09899906  0.22172239  0.24314378    -0.05000
C1639       C  0.10277689  0.22079534  0.27881187     0.02200
C1640       C  0.09142381  0.20598422  0.29994673    -0.04600
C1641       C  0.07661760  0.19183200  0.28462346    -0.00800
C1642       C  0.07364747  0.19214700  0.24877528    -0.03400
C1643       C  0.11036577  0.23722671  0.22176421     0.35900
C1644       C  0.06360115  0.17750828  0.30564561     0.39500
C1645       C  0.11888131  0.23467964  0.29341382     0.38600
C1646       C  0.05986762  0.17634986  0.23311904     0.35500
C1647       C  0.11606975  0.18961769  0.18300607     0.36200
C1648       C  0.04103730  0.22767055  0.12470009     0.39500
N1649       N  0.13180871  0.24574535  0.30485291    -0.38600
N1650       N  0.11947021  0.24948935  0.20457613    -0.40200
N1651       N  0.05297467  0.16611757  0.32206731    -0.37900
N1652       N  0.04903716  0.16354686  0.22080040    -0.40300
N1653       N  0.03342917  0.23338861  0.21528446    -0.40100
N1654       N  0.02599399  0.23563679  0.11295038    -0.37700
N1655       N  0.12483744  0.18514705  0.09347553    -0.38800
N1656       N  0.13138476  0.18222832  0.19479317    -0.40400
C1657       C  0.82771930  0.55131918  0.40409054    -0.05400
C1658       C  0.84286920  0.56042782  0.38132109     0.08800
C1659       C  0.83646463  0.57608558  0.35700590    -0.02800
C1660       C  0.81486386  0.58238871  0.35511144    -0.01000
C1661       C  0.79948535  0.57263947  0.37697744    -0.04600
C1662       C  0.80603118  0.55711506  0.40158782     0.02400
C1663       C  0.86563490  0.55343942  0.38321787     0.09200
C1664       C  0.85213455  0.58573552  0.33399897     0.35100
C1665       C  0.79040501  0.54641543  0.42349794     0.38600
C1666       C  0.87179836  0.53354486  0.36953860    -0.05000
C1667       C  0.89292898  0.52617263  0.37349794     0.02200
C1668       C  0.90827925  0.53906170  0.39015395    -0.04600
C1669       C  0.90211634  0.55930337  0.40301975    -0.00800
C1670       C  0.88076884  0.56624851  0.40005173    -0.03400
C1671       C  0.85627443  0.52057262  0.35160238     0.35900
C1672       C  0.91771194  0.57336902  0.41852453     0.39500
C1673       C  0.89850478  0.50489418  0.36165340     0.38600
C1674       C  0.87418962  0.58647504  0.41475735     0.35500
C1675       C  0.83457113  0.53604866  0.43026062     0.36200
C1676       C  0.80866388  0.59954351  0.33165337     0.39500
N1677       N  0.90283814  0.48787923  0.35233001    -0.38600
N1678       N  0.84392343  0.51021959  0.33726273    -0.40200
N1679       N  0.92994905  0.58479153  0.43091896    -0.37900
N1680       N  0.86877330  0.60254753  0.42649767    -0.40300
N1681       N  0.86459663  0.59350814  0.31565172    -0.40100
N1682       N  0.80382642  0.61342679  0.31325136    -0.37700
N1683       N  0.77800650  0.53773881  0.44090459    -0.38800
N1684       N  0.84015837  0.52396354  0.45116763    -0.40400
C1685       C  0.83452512  0.55924584  0.91334240    -0.05400
C1686       C  0.85091834  0.56880363  0.89356652     0.08800
C1687       C  0.84581438  0.58391316  0.86758263    -0.02800
C1688       C  0.82426807  0.58945719  0.86133863    -0.01000
C1689       C  0.80778580  0.57999608  0.88133434    -0.04600
C1690       C  0.81306127  0.56483718  0.90738633     0.02400
C1691       C  0.87346084  0.56169442  0.89867300     0.09200
C1692       C  0.86280541  0.59357467  0.84718099     0.35100
C1693       C  0.79639338  0.55435774  0.92751941     0.38600
C1694       C  0.88073918  0.54304393  0.88226907    -0.05000
C1695       C  0.90172953  0.53573750  0.88763041     0.02200
C1696       C  0.91575049  0.54734925  0.90877932    -0.04600
C1697       C  0.90854908  0.56609456  0.92508012    -0.00800
C1698       C  0.88727625  0.57307935  0.92044966    -0.03400
C1699       C  0.86661945  0.53150336  0.85954831     0.35900
C1700       C  0.92330753  0.57868923  0.94513768     0.39500
C1701       C  0.90888404  0.51616857  0.87138116     0.38600
C1702       C  0.87956998  0.59198412  0.93787092     0.35500
C1703       C  0.83979942  0.54327724  0.93942867     0.36200
C1704       C  0.81917820  0.60524903  0.83496666     0.39500
N1705       N  0.91446830  0.50052446  0.85843901    -0.38600
N1706       N  0.85536176  0.52236863  0.84134760    -0.40200
N1707       N  0.93521972  0.58878721  0.96081422    -0.37900
N1708       N  0.87333829  0.60702511  0.95183536    -0.40300
N1709       N  0.87644574  0.60124221  0.83103138    -0.40100
N1710       N  0.81525091  0.61788292  0.81388872    -0.37700
N1711       N  0.78323425  0.54594396  0.94375441    -0.38800
N1712       N  0.84404242  0.53047413  0.96007924    -0.40400
C1713       C  0.72089689  0.56897204  0.65573170    -0.05400
C1714       C  0.70533954  0.58218162  0.64009584     0.08800
C1715       C  0.69196935  0.59499117  0.66047953    -0.02800
C1716       C  0.69388029  0.59439547  0.69644571    -0.01000
C1717       C  0.70878602  0.58037891  0.71251572    -0.04600
C1718       C  0.72267303  0.56806689  0.69182480     0.02400
C1719       C  0.70429121  0.58430719  0.60194129     0.09200
C1720       C  0.67682381  0.60949930  0.64414920     0.35100
C1721       C  0.73905660  0.55473506  0.70740272     0.38600
C1722       C  0.69178860  0.57004534  0.58270569    -0.05000
C1723       C  0.69027440  0.57273805  0.54680487     0.02200
C1724       C  0.70112559  0.58988788  0.53002905    -0.04600
C1725       C  0.71352195  0.60422415  0.54953635    -0.00800
C1726       C  0.71517300  0.60133627  0.58530348    -0.03400
C1727       C  0.68049659  0.55261617  0.59994067     0.35900
C1728       C  0.72408838  0.62239331  0.53307537     0.39500
C1729       C  0.67818704  0.55734831  0.52712879     0.38600
C1730       C  0.72795015  0.61600119  0.60528348     0.35500
C1731       C  0.73549290  0.55684212  0.63447263     0.36200
C1732       C  0.68178559  0.60971310  0.71642731     0.39500
N1733       N  0.66859653  0.54494409  0.51161507    -0.38600
N1734       N  0.67148065  0.53870583  0.61366534    -0.40200
N1735       N  0.73251293  0.63695582  0.52014726    -0.37900
N1736       N  0.73806448  0.62760806  0.62149464    -0.40300
N1737       N  0.66491986  0.62113750  0.63092413    -0.40100
N1738       N  0.67230670  0.62236558  0.73173025    -0.37700
N1739       N  0.75235650  0.54424655  0.71956098    -0.38800
N1740       N  0.74717700  0.54730487  0.61736972    -0.40400
C1741       C  0.69373887  0.56890099  0.07963034    -0.05400
C1742       C  0.70672767  0.58097743  0.10158617     0.08800
C1743       C  0.72082211  0.59650218  0.08765730    -0.02800
C1744       C  0.72107326  0.60085519  0.05208093    -0.01000
C1745       C  0.70783385  0.58904096  0.02988650    -0.04600
C1746       C  0.69453762  0.57261239  0.04388461     0.02400
C1747       C  0.70453714  0.57847700  0.13962241     0.09200
C1748       C  0.73495353  0.60816459  0.11016034     0.35100
C1749       C  0.68199641  0.55902708  0.02171573     0.38600
C1750       C  0.71469725  0.56141360  0.15725663    -0.05000
C1751       C  0.71293120  0.55958382  0.19328656     0.02200
C1752       C  0.70156127  0.57522499  0.21193657    -0.04600
C1753       C  0.69119416  0.59216447  0.19407506    -0.00800
C1754       C  0.69253007  0.59363842  0.15806993    -0.03400
C1755       C  0.72747087  0.54613467  0.13835712     0.35900
C1756       C  0.68001922  0.60879085  0.21271253     0.39500
C1757       C  0.72236565  0.54132656  0.21104393     0.38600
C1758       C  0.68198141  0.61113726  0.13992777     0.35500
C1759       C  0.67933688  0.55281353  0.09396176     0.36200
C1760       C  0.73420444  0.61826866  0.03878634     0.39500
N1761       N  0.72973395  0.52663079  0.22509778    -0.38600
N1762       N  0.73777460  0.53403765  0.12326240    -0.40200
N1763       N  0.67116265  0.62214856  0.22742002    -0.37900
N1764       N  0.67366498  0.62513208  0.12543618    -0.40300
N1765       N  0.74629501  0.61738602  0.12810998    -0.40100
N1766       N  0.74467295  0.63227858  0.02852848    -0.37700
N1767       N  0.67193577  0.54793222  0.00454129    -0.38800
N1768       N  0.66786317  0.53998223  0.10539258    -0.40400
C1769       C  0.96523014  0.62771080  0.48211933    -0.05400
C1770       C  0.96120981  0.64263883  0.45543385     0.08800
C1771       C  0.96666428  0.63744141  0.42141055    -0.02800
C1772       C  0.97443467  0.61682113  0.41372307    -0.01000
C1773       C  0.97926322  0.60207973  0.44050276    -0.04600
C1774       C  0.97531796  0.60800519  0.47490240     0.02400
C1775       C  0.95193977  0.66425301  0.46279374     0.09200
C1776       C  0.96449048  0.65347668  0.39431594     0.35100
C1777       C  0.98222592  0.59414107  0.50294977     0.38600
C1778       C  0.96552606  0.68110486  0.47254861    -0.05000
C1779       C  0.95768668  0.70227596  0.47395823     0.02200
C1780       C  0.93610412  0.70676145  0.46576088    -0.04600
C1781       C  0.92220214  0.68968933  0.45772391    -0.00800
C1782       C  0.93007602  0.66842178  0.45675752    -0.03400
C1783       C  0.98773244  0.67664615  0.48052367     0.35900
C1784       C  0.89985548  0.69398165  0.45063329     0.39500
C1785       C  0.97222824  0.71960774  0.48209699     0.38600
C1786       C  0.91576117  0.65069851  0.44996587     0.35500
C1787       C  0.95854214  0.63244386  0.51682629     0.36200
C1788       C  0.97574369  0.61036605  0.37819338     0.39500
N1789       N  0.98391704  0.73337784  0.48844259    -0.38600
N1790       N  0.00539967  0.67301243  0.48709103    -0.40200
N1791       N  0.88202259  0.69738873  0.44492457    -0.37900
N1792       N  0.90443888  0.63639499  0.44500141    -0.40300
N1793       N  0.96309957  0.66641721  0.37286571    -0.40100
N1794       N  0.97623062  0.60527259  0.34978226    -0.37700
N1795       N  0.98806261  0.58320754  0.52524800    -0.38800
N1796       N  0.95289773  0.63605591  0.54444522    -0.40400
C1797       C  0.81747751  0.71710134  0.45300678    -0.05400
C1798       C  0.80708700  0.71535186  0.42120793     0.08800
C1799       C  0.81291421  0.72881945  0.39338391    -0.02800
C1800       C  0.82964076  0.74367772  0.39703839    -0.01000
C1801       C  0.84029498  0.74521329  0.42867931    -0.04600
C1802       C  0.83396633  0.73215277  0.45686918     0.02400
C1803       C  0.79046202  0.69867003  0.41677431     0.09200
C1804       C  0.80138871  0.72757490  0.36128755     0.35100
C1805       C  0.84445226  0.73409489  0.48983090     0.38600
C1806       C  0.76864249  0.70409519  0.41840651    -0.05000
C1807       C  0.75296484  0.68810852  0.41418830     0.02200
C1808       C  0.75917930  0.66643830  0.40983871    -0.04600
C1809       C  0.78123203  0.66116882  0.40900198    -0.00800
C1810       C  0.79674758  0.67733168  0.41145007    -0.03400
C1811       C  0.76248391  0.72620861  0.42423401     0.35900
C1812       C  0.78833851  0.63922763  0.40488886     0.39500
C1813       C  0.73056579  0.69408857  0.41479035     0.38600
C1814       C  0.81927843  0.67212059  0.40761767     0.35500
C1815       C  0.81105657  0.70344135  0.48171501     0.36200
C1816       C  0.83514872  0.75808007  0.36884879     0.39500
N1817       N  0.71278886  0.69922826  0.41512305    -0.38600
N1818       N  0.75782056  0.74391358  0.42884944    -0.40200
N1819       N  0.79462872  0.62188792  0.40226073    -0.37900
N1820       N  0.83719084  0.66796458  0.40424230    -0.40300
N1821       N  0.79193966  0.72665892  0.33591087    -0.40100
N1822       N  0.83929874  0.76970864  0.34640630    -0.37700
N1823       N  0.85263799  0.73568763  0.51622729    -0.38800
N1824       N  0.80587027  0.69250720  0.50450259    -0.40400
C1825       C  0.94679548  0.67379856  0.94641918    -0.05400
C1826       C  0.95938469  0.67124202  0.91658813     0.08800
C1827       C  0.96418106  0.68919858  0.89566161    -0.02800
C1828       C  0.95726585  0.70976028  0.90508806    -0.01000
C1829       C  0.94437702  0.71252147  0.93469668    -0.04600
C1830       C  0.93926819  0.69437569  0.95547865    -0.03600
C1831       C  0.96847353  0.64983838  0.90753096     0.09200
C1832       C  0.97645843  0.68644491  0.86434376     0.35100
C1833       C  0.92618711  0.69669875  0.98600604     0.38600
C1834       C  0.95552913  0.63423108  0.89209683    -0.05000
C1835       C  0.96418558  0.61412202  0.88326509     0.02200
C1836       C  0.98601235  0.60944201  0.88995169    -0.04600
C1837       C  0.99929788  0.62592819  0.90280678    -0.00800
C1838       C  0.99048654  0.64584584  0.91203280    -0.03400
C1839       C  0.93323317  0.63896659  0.88516379     0.35900
C1840       C  0.02221107  0.62274463  0.90593218     0.39500
C1841       C  0.95025891  0.59838502  0.86786066     0.38600
C1842       C  0.00414212  0.66236484  0.92610130     0.35500
C1843       C  0.94160597  0.65524336  0.96777028     0.36200
C1844       C  0.96478662  0.72818855  0.88533196     0.39500
N1845       N  0.93884618  0.58624378  0.85520928    -0.38600
N1846       N  0.91546122  0.64273544  0.87958208    -0.40200
N1847       N  0.04049844  0.62044756  0.90847858    -0.37900
N1848       N  0.01505781  0.67559535  0.93703212    -0.40300
N1849       N  0.98625337  0.68409802  0.83944055    -0.40100
N1850       N  0.97109484  0.74278202  0.86965385    -0.37700
N1851       N  0.91576257  0.69839343  0.01041222    -0.38800
N1852       N  0.93732868  0.64047473  0.98478646    -0.40400
C1853       C  0.78452386  0.69889388  0.93343416    -0.05400
C1854       C  0.79692515  0.70515243  0.90468781     0.08800
C1855       C  0.79382436  0.69518739  0.87291891    -0.02800
C1856       C  0.77859214  0.67869891  0.86996334    -0.01000
C1857       C  0.76600566  0.67246832  0.89869159    -0.04600
C1858       C  0.76892658  0.68272131  0.93035314     0.02400
C1859       C  0.81409856  0.72150914  0.90822473     0.09200
C1860       C  0.80658319  0.70177189  0.84342506     0.35100
C1861       C  0.75546088  0.67704763  0.95944109     0.38600
C1862       C  0.83490129  0.71488007  0.91705962    -0.05000
C1863       C  0.85113901  0.73022564  0.92116607     0.02200
C1864       C  0.84668695  0.75229745  0.91620167    -0.04600
C1865       C  0.82594630  0.75887744  0.90658661    -0.00800
C1866       C  0.80968467  0.74346166  0.90246109    -0.03400
C1867       C  0.83950729  0.69222058  0.92219358     0.35900
C1868       C  0.82139608  0.78143332  0.90054342     0.39500
C1869       C  0.87215985  0.72327922  0.93217872     0.38600
C1870       C  0.78841819  0.75011120  0.89220302     0.35500
C1871       C  0.78799376  0.70897715  0.96622990     0.36200
C1872       C  0.77660175  0.66754274  0.83769996     0.39500
N1873       N  0.88883332  0.71756226  0.94112589    -0.38600
N1874       N  0.84317007  0.67415150  0.92619683    -0.40200
N1875       N  0.81765850  0.79940203  0.89561086    -0.37900
N1876       N  0.77146575  0.75542054  0.88389703    -0.40300
N1877       N  0.81676047  0.70712821  0.81997371    -0.40100
N1878       N  0.77515003  0.65863431  0.81197438    -0.37700
N1879       N  0.74453742  0.67256139  0.98245966    -0.38800
N1880       N  0.79079359  0.71696191  0.99244193    -0.40400
C1881       C  0.91114800  0.83227816  0.74337356    -0.05400
C1882       C  0.92636260  0.81872048  0.72772772     0.08800
C1883       C  0.94013338  0.80628821  0.74856399    -0.02800
C1884       C  0.93855462  0.80718385  0.78458837    -0.01000
C1885       C  0.92241230  0.81960655  0.80034406    -0.04600
C1886       C  0.90896330  0.83252258  0.77949974     0.02400
C1887       C  0.92752118  0.81710427  0.68932556     0.09200
C1888       C  0.95574869  0.79219561  0.73296965     0.35100
C1889       C  0.89238590  0.84552889  0.79493505     0.38600
C1890       C  0.94501261  0.82593371  0.67083004    -0.05000
C1891       C  0.94609753  0.82414440  0.63475471     0.02200
C1892       C  0.92975271  0.81340146  0.61691642    -0.04600
C1893       C  0.91180467  0.80547631  0.63528696    -0.00800
C1894       C  0.91095354  0.80682000  0.67132910    -0.03400
C1895       C  0.96192725  0.83684375  0.68899185     0.35900
C1896       C  0.89342763  0.79737266  0.61690364     0.39500
C1897       C  0.96393700  0.83354115  0.61602258     0.38600
C1898       C  0.89299222  0.79751470  0.68994447     0.35500
C1899       C  0.89756890  0.84580719  0.72212691     0.36200
C1900       C  0.95416571  0.79585763  0.80544546     0.39500
N1901       N  0.97807304  0.84126753  0.60111268    -0.38600
N1902       N  0.97549383  0.84538608  0.70357241    -0.40200
N1903       N  0.87859139  0.79133011  0.60226988    -0.37900
N1904       N  0.87864295  0.79011871  0.70475791    -0.40300
N1905       N  0.96826441  0.78093370  0.72073759    -0.40100
N1906       N  0.96678222  0.78697958  0.82195451    -0.37700
N1907       N  0.87908527  0.85595524  0.80696309    -0.38800
N1908       N  0.88675050  0.85650062  0.70500433    -0.40400
C1909       C  0.91718539  0.80823874  0.17003796    -0.05400
C1910       C  0.93257638  0.79702600  0.18968336     0.08800
C1911       C  0.94977069  0.78674241  0.17286271    -0.02800
C1912       C  0.95165553  0.78793974  0.13671765    -0.01000
C1913       C  0.93607133  0.79895676  0.11722252    -0.04600
C1914       C  0.91852321  0.80857140  0.13401204     0.02400
C1915       C  0.93023823  0.79607197  0.22802211     0.09200
C1916       C  0.96553187  0.77498847  0.19272415     0.35100
C1917       C  0.90115798  0.81783008  0.11411529     0.38600
C1918       C  0.91397188  0.78340500  0.24335150    -0.05000
C1919       C  0.90995132  0.78449386  0.27897259     0.02200
C1920       C  0.92202865  0.79846974  0.29965170    -0.04600
C1921       C  0.93910599  0.81021679  0.28446070    -0.00800
C1922       C  0.94322098  0.80894555  0.24889746    -0.03400
C1923       C  0.90136742  0.76915017  0.22237151     0.35900
C1924       C  0.95320737  0.82288696  0.30554518     0.39500
C1925       C  0.89318988  0.77131957  0.29409035     0.38600
C1926       C  0.96101910  0.82072890  0.23382172     0.35500
C1927       C  0.90005930  0.81976510  0.18694662     0.36200
C1928       C  0.96977274  0.77819062  0.11961380     0.39500
N1929       N  0.87996679  0.76052938  0.30597574    -0.38600
N1930       N  0.89129334  0.75772020  0.20577674    -0.40200
N1931       N  0.96475550  0.83290140  0.32200575    -0.37900
N1932       N  0.97544061  0.82986180  0.22197677    -0.40300
N1933       N  0.97820154  0.76565238  0.20849166    -0.40100
N1934       N  0.98421847  0.77047469  0.10583556    -0.37700
N1935       N  0.88721958  0.82490152  0.09814655    -0.38800
N1936       N  0.88645984  0.82910431  0.20032028    -0.40400
C1937       C  0.09533701  0.07347425  0.49519230    -0.05400
C1938       C  0.11657477  0.06691210  0.48923570     0.08800
C1939       C  0.13219231  0.08220072  0.47942483    -0.02800
C1940       C  0.12640724  0.10382104  0.47411297    -0.01000
C1941       C  0.10488878  0.11014995  0.47786062    -0.04600
C1942       C  0.08944938  0.09505869  0.48937658     0.02400
C1943       C  0.12237906  0.04369334  0.49010918     0.09200
C1944       C  0.15419400  0.07555482  0.47432002     0.35100
C1945       C  0.06743291  0.10164570  0.49461816     0.38600
C1946       C  0.11854219  0.03117822  0.46093039    -0.05000
C1947       C  0.12779556  0.01070331  0.45835720     0.02200
C1948       C  0.14132718  0.00288933  0.48455025    -0.04600
C1949       C  0.14338928  0.01443770  0.51525520    -0.00800
C1950       C  0.13383549  0.03487492  0.51803873    -0.03400
C1951       C  0.10605012  0.03987660  0.43272721     0.35900
C1952       C  0.15620017  0.00586468  0.54314982     0.39500
C1953       C  0.12368975  0.99772638  0.42847180     0.38600
C1954       C  0.13649619  0.04726609  0.54891849     0.35500
C1955       C  0.07960728  0.05795172  0.50712793     0.36200
C1956       C  0.14272143  0.11970366  0.46610209     0.39500
N1957       N  0.12032209  0.98726986  0.40480539    -0.38600
N1958       N  0.09611273  0.04685392  0.41023553    -0.40200
N1959       N  0.16633935  0.99905841  0.56554562    -0.37900
N1960       N  0.13855580  0.05718494  0.57355317    -0.40300
N1961       N  0.17172557  0.07017130  0.47035150    -0.40100
N1962       N  0.15576330  0.13241006  0.46011163    -0.37700
N1963       N  0.04991773  0.10698028  0.49895399    -0.38800
N1964       N  0.06710025  0.04556578  0.51682698    -0.40400
C1965       C  0.03633745  0.86705559  0.50241870    -0.05400
C1966       C  0.03853424  0.88294467  0.47650961     0.08800
C1967       C  0.02061612  0.88996213  0.45771924    -0.02800
C1968       C  0.00055883  0.88051457  0.46402565    -0.01000
C1969       C  0.99868684  0.86352933  0.48821283    -0.04600
C1970       C  0.01649552  0.85698313  0.50770374     0.02400
C1971       C  0.06015339  0.89068879  0.46681336     0.09200
C1972       C  0.02327097  0.90553490  0.42999098     0.35100
C1973       C  0.01482923  0.83858409  0.53080741     0.38600
C1974       C  0.07388110  0.87717236  0.44813985    -0.05000
C1975       C  0.09521251  0.88325258  0.44235124     0.02200
C1976       C  0.10234428  0.90360738  0.45294568    -0.04600
C1977       C  0.08809647  0.91771642  0.46966700    -0.00800
C1978       C  0.06715292  0.91102264  0.47728295    -0.03400
C1979       C  0.06605202  0.85686949  0.43533992     0.35900
C1980       C  0.09499905  0.93905254  0.47933624     0.39500
C1981       C  0.11013295  0.86783577  0.42823093     0.38600
C1982       C  0.05292466  0.92480188  0.49652771     0.35500
C1983       C  0.05486580  0.86003222  0.52183630     0.36200
C1984       C  0.98232805  0.88674112  0.44321446     0.39500
N1985       N  0.12203775  0.85534849  0.41756440    -0.38600
N1986       N  0.05969884  0.84077054  0.42498686    -0.40200
N1987       N  0.10054339  0.95602378  0.48711204    -0.37900
N1988       N  0.04156328  0.93575564  0.51191988    -0.40300
N1989       N  0.02560564  0.91779755  0.40772207    -0.40100
N1990       N  0.96781620  0.89162914  0.42653759    -0.37700
N1991       N  0.01358047  0.82370246  0.54879996    -0.38800
N1992       N  0.06969795  0.85435810  0.53709965    -0.40400
C1993       C  0.14186817  0.03847356  0.01534481    -0.05400
C1994       C  0.12657810  0.04402160  0.99016292     0.08800
C1995       C  0.11993177  0.02856750  0.96635707    -0.02800
C1996       C  0.13016971  0.00847758  0.96539135    -0.01000
C1997       C  0.14675447  0.00366980  0.98868135    -0.04600
C1998       C  0.15199625  0.01828097  0.01452921     0.02400
C1999       C  0.11988873  0.06687409  0.98538155     0.09200
C2000       C  0.10350027  0.03382238  0.94148641     0.35100
C2001       C  0.16912509  0.01323971  0.03824472     0.38600
C2002       C  0.13406040  0.08153189  0.96924677    -0.05000
C2003       C  0.12792125  0.10305549  0.96379300     0.02200
C2004       C  0.10733822  0.10999666  0.97372761    -0.04600
C2005       C  0.09320272  0.09528626  0.99018941    -0.00800
C2006       C  0.09947360  0.07377927  0.99586676    -0.03400
C2007       C  0.15504271  0.07437778  0.95818827     0.35900
C2008       C  0.07217295  0.10216813  0.00139664     0.39500
C2009       C  0.14333467  0.11828036  0.94987842     0.38600
C2010       C  0.08494130  0.05868432  0.01241803     0.35500
C2011       C  0.14812020  0.05404757  0.04068900     0.36200
C2012       C  0.12477182  0.99336817  0.93876631     0.39500
N2013       N  0.15586913  0.13032072  0.93919763    -0.38600
N2014       N  0.17176244  0.06859504  0.94948405    -0.40200
N2015       N  0.05547599  0.10757194  0.01081009    -0.37900
N2016       N  0.07333552  0.04659689  0.02548498    -0.40300
N2017       N  0.09031655  0.03792468  0.92173201    -0.40100
N2018       N  0.12056290  0.98143578  0.91734103    -0.37700
N2019       N  0.18295788  0.00919048  0.05684128    -0.38800
N2020       N  0.15321945  0.06646066  0.06087961    -0.40400
C2021       C  0.20745039  0.95251314  0.66008285    -0.05400
C2022       C  0.19811891  0.93484534  0.67754909     0.08800
C2023       C  0.18727400  0.91899878  0.65892455    -0.02800
C2024       C  0.18701180  0.91998925  0.62285347    -0.01000
C2025       C  0.19655159  0.93755791  0.60516497    -0.04600
C2026       C  0.20646518  0.95400377  0.62398372     0.02400
C2027       C  0.20011392  0.93245368  0.71558295     0.09200
C2028       C  0.17634928  0.90164404  0.67701057     0.35100
C2029       C  0.21550562  0.97252898  0.60625694     0.38600
C2030       C  0.18675012  0.94429368  0.73744131    -0.05000
C2031       C  0.18767339  0.94098544  0.77324048     0.02200
C2032       C  0.20183469  0.92552063  0.78749739    -0.04600
C2033       C  0.21570166  0.91417479  0.76543108    -0.00800
C2034       C  0.21491055  0.91773841  0.72966241    -0.03400
C2035       C  0.17209347  0.95999304  0.72296336     0.35900
C2036       C  0.23043528  0.89834876  0.77913052     0.39500
C2037       C  0.17454976  0.95421517  0.79524358     0.38600
C2038       C  0.22937885  0.90628064  0.70719211     0.35500
C2039       C  0.21810958  0.96908806  0.67936444     0.36200
C2040       C  0.17824894  0.90208528  0.60408048     0.39500
N2041       N  0.16405389  0.96506156  0.81229469    -0.38600
N2042       N  0.16054667  0.97262068  0.71134425    -0.40200
N2043       N  0.24238570  0.88569821  0.78947773    -0.37900
N2044       N  0.24095994  0.89719761  0.68928796    -0.40300
N2045       N  0.16747952  0.88791979  0.69145007    -0.40100
N2046       N  0.17150567  0.88759873  0.58934605    -0.37700
N2047       N  0.22267903  0.98733262  0.59211370    -0.38800
N2048       N  0.22649189  0.98232081  0.69491807    -0.40400
C2049       C  0.21802091  0.91353785  0.15879871    -0.05400
C2050       C  0.20410063  0.92602211  0.17875343     0.08800
C2051       C  0.19032827  0.94094867  0.16268164    -0.02800
C2052       C  0.19087439  0.94378291  0.12671172    -0.01000
C2053       C  0.20486065  0.93123106  0.10650617    -0.04600
C2054       C  0.21777833  0.91547820  0.12282286     0.02400
C2055       C  0.20362906  0.92296057  0.21676653     0.09200
C2056       C  0.17535198  0.95311743  0.18324592     0.35100
C2057       C  0.22926547  0.89974641  0.10281055     0.38600
C2058       C  0.21387428  0.93791093  0.23795722    -0.05000
C2059       C  0.21346795  0.93502516  0.27381587     0.02200
C2060       C  0.20324986  0.91683463  0.28860903    -0.04600
C2061       C  0.19348810  0.90159490  0.26731542    -0.00800
C2062       C  0.19347318  0.90477297  0.23149109    -0.03400
C2063       C  0.22503202  0.95614578  0.22276085     0.35900
C2064       C  0.18415290  0.88225604  0.28217108     0.39500
C2065       C  0.22299296  0.95116695  0.29549685     0.38600
C2066       C  0.18312382  0.88924545  0.20971328     0.35500
C2067       C  0.23250910  0.89850224  0.17542266     0.36200
C2068       C  0.17674963  0.95939167  0.11075252     0.39500
N2069       N  0.23053076  0.96400436  0.31288656    -0.38600
N2070       N  0.23398841  0.97064842  0.21062839    -0.40200
N2071       N  0.17686154  0.86675558  0.29401778    -0.37900
N2072       N  0.17492226  0.87678267  0.19240784    -0.40300
N2073       N  0.16338282  0.96273860  0.19972077    -0.40100
N2074       N  0.16518138  0.97172037  0.09839952    -0.37700
N2075       N  0.23807044  0.88666783  0.08742801    -0.38800
N2076       N  0.24409039  0.88659399  0.18877474    -0.40400
C2077       C  0.07389878  0.88773464  0.95197525    -0.05400
C2078       C  0.06342755  0.89803617  0.97930421     0.08800
C2079       C  0.07334080  0.91524921  0.99580995    -0.02800
C2080       C  0.09387361  0.92200509  0.98537921    -0.01000
C2081       C  0.10538275  0.91036408  0.96018840    -0.04600
C2082       C  0.09508392  0.89330733  0.94322957     0.02400
C2083       C  0.04213871  0.89010455  0.99106639     0.09200
C2084       C  0.06255376  0.92563473  0.02409992     0.35100
C2085       C  0.10650984  0.88043672  0.91844852     0.38600
C2086       C  0.04089130  0.87288417  0.01490033    -0.05000
C2087       C  0.02142384  0.86188276  0.01971477     0.02200
C2088       C  0.00331496  0.86826166  0.00088689    -0.04600
C2089       C  0.00393089  0.88716824  0.98052038    -0.00800
C2090       C  0.02341007  0.89809797  0.97556793    -0.03400
C2091       C  0.05989499  0.86581744  0.03294953     0.35900
C2092       C  0.98491173  0.89439501  0.96256711     0.39500
C2093       C  0.02025918  0.84320543  0.04226051     0.38600
C2094       C  0.02449855  0.91674992  0.95295581     0.35500
C2095       C  0.06291529  0.87110240  0.93318961     0.36200
C2096       C  0.10287626  0.94116988  0.00041645     0.39500
N2097       N  0.01922514  0.82830788  0.06025555    -0.38600
N2098       N  0.07506080  0.86023815  0.04742858    -0.40200
N2099       N  0.96979245  0.90022976  0.94820087    -0.37900
N2100       N  0.02535677  0.93165480  0.93495578    -0.40300
N2101       N  0.05399326  0.93375155  0.04686270    -0.40100
N2102       N  0.10984116  0.95652990  0.01244408    -0.37700
N2103       N  0.11545954  0.86987702  0.89888178    -0.38800
N2104       N  0.05410816  0.85800837  0.91793026    -0.40400
C2105       C  0.54004136  0.64770365  0.30416978    -0.05400
C2106       C  0.54149954  0.63138396  0.32954259     0.08800
C2107       C  0.52280127  0.62367070  0.34588717    -0.02800
C2108       C  0.50297872  0.63351492  0.33903419    -0.01000
C2109       C  0.50187020  0.65113200  0.31593526    -0.04600
C2110       C  0.52019746  0.65753758  0.29735000     0.02400
C2111       C  0.56286407  0.62311645  0.34036393     0.09200
C2112       C  0.52417792  0.60647126  0.37124109     0.35100
C2113       C  0.51866488  0.67504925  0.27258182     0.38600
C2114       C  0.57528339  0.63476685  0.36384177    -0.05000
C2115       C  0.59588653  0.62748841  0.37300378     0.02200
C2116       C  0.60400205  0.60824878  0.35908758    -0.04600
C2117       C  0.59095499  0.59611158  0.33688922    -0.00800
C2118       C  0.57069362  0.60377223  0.32706287    -0.03400
C2119       C  0.56697084  0.65457782  0.37780780     0.35900
C2120       C  0.59820892  0.57555859  0.32417730     0.39500
C2121       C  0.60900294  0.64047341  0.39522414     0.38600
C2122       C  0.55811398  0.59207922  0.30236393     0.35500
C2123       C  0.55914409  0.65504641  0.28638491     0.36200
C2124       C  0.48402549  0.62664452  0.35780538     0.39500
N2125       N  0.61931824  0.65104553  0.41285561    -0.38600
N2126       N  0.56023274  0.67038943  0.38872261    -0.40200
N2127       N  0.60386473  0.55917700  0.31385590    -0.37900
N2128       N  0.54817718  0.58281331  0.28246081    -0.40300
N2129       N  0.52523482  0.59275844  0.39148804    -0.40100
N2130       N  0.46896308  0.62110502  0.37283834    -0.37700
N2131       N  0.51715739  0.68898643  0.25280934    -0.38800
N2132       N  0.57443593  0.66090976  0.27231072    -0.40400
C2133       C  0.28326728  0.82115292  0.38595915    -0.05400
C2134       C  0.29450712  0.81395003  0.41520688     0.08800
C2135       C  0.29059506  0.82330109  0.44728343    -0.02800
C2136       C  0.27565691  0.84005970  0.45006710    -0.01000
C2137       C  0.26413320  0.84712028  0.42087994    -0.04600
C2138       C  0.26840125  0.83802494  0.38862547     0.02400
C2139       C  0.31217084  0.79815554  0.41144513     0.09200
C2140       C  0.30211256  0.81573607  0.47731585     0.35100
C2141       C  0.25783059  0.84627225  0.35814326     0.38600
C2142       C  0.33290808  0.80563036  0.40365567    -0.05000
C2143       C  0.34964393  0.79094049  0.39855394     0.02200
C2144       C  0.34565555  0.76859703  0.40090847    -0.04600
C2145       C  0.32494655  0.76117260  0.40973254    -0.00800
C2146       C  0.30824013  0.77596902  0.41506523    -0.03400
C2147       C  0.33686888  0.82852845  0.40004964     0.35900
C2148       C  0.32086890  0.73836896  0.41393548     0.39500
C2149       C  0.37070923  0.79898668  0.38933045     0.38600
C2150       C  0.28694625  0.76844917  0.42391852     0.35500
C2151       C  0.28700466  0.81107611  0.35318398     0.36200
C2152       C  0.27331330  0.85111157  0.48240285     0.39500
N2153       N  0.38740840  0.80567270  0.38205318    -0.38600
N2154       N  0.34000530  0.84677066  0.39706907    -0.40200
N2155       N  0.31747676  0.72021027  0.41749047    -0.37900
N2156       N  0.26994652  0.76248690  0.43100962    -0.40300
N2157       N  0.31123289  0.80958076  0.50125764    -0.40100
N2158       N  0.27164857  0.86018225  0.50797114    -0.37700
N2159       N  0.24961190  0.85319681  0.33387137    -0.38800
N2160       N  0.28990097  0.80286695  0.32714243    -0.40400
C2161       C  0.37864633  0.58316076  0.35502031    -0.05400
C2162       C  0.38915567  0.57069098  0.33009889     0.08800
C2163       C  0.40724967  0.57902301  0.31296139    -0.02800
C2164       C  0.41490888  0.59968188  0.32076747    -0.01000
C2165       C  0.40379359  0.61271323  0.34452570    -0.04600
C2166       C  0.38573746  0.60416039  0.36194102     0.02400
C2167       C  0.38114628  0.54859648  0.32270023     0.09200
C2168       C  0.41769515  0.56645747  0.28673320     0.35100
C2169       C  0.37385035  0.61709334  0.38608608     0.38600
C2170       C  0.36246908  0.54592141  0.30306390    -0.05000
C2171       C  0.35175531  0.52599835  0.30343174     0.02200
C2172       C  0.36029077  0.50844316  0.32207073    -0.04600
C2173       C  0.38037643  0.51044440  0.33809239    -0.00800
C2174       C  0.39073016  0.53055970  0.33861540    -0.03400
C2175       C  0.35398098  0.56390293  0.28344942     0.35900
C2176       C  0.38948330  0.49225296  0.35649052     0.39500
C2177       C  0.33125559  0.52392698  0.28656972     0.38600
C2178       C  0.41064269  0.53301095  0.35705424     0.35500
C2179       C  0.36029011  0.57440012  0.37332899     0.36200
C2180       C  0.43466908  0.60716615  0.30502047     0.39500
N2181       N  0.31482568  0.52233603  0.27331558    -0.38600
N2182       N  0.34736486  0.57821258  0.26751324    -0.40200
N2183       N  0.39671061  0.47775632  0.37125368    -0.37900
N2184       N  0.42658017  0.53504206  0.37161375    -0.40300
N2185       N  0.42591710  0.55647481  0.26563710    -0.40100
N2186       N  0.45049930  0.61302468  0.29258029    -0.37700
N2187       N  0.36423328  0.62725545  0.40538911    -0.38800
N2188       N  0.34564336  0.56743079  0.38790813    -0.40400
C2189       C  0.52876594  0.61949992  0.85127784    -0.05400
C2190       C  0.54675656  0.62657141  0.83222648     0.08800
C2191       C  0.54423172  0.64258681  0.80649147    -0.02800
C2192       C  0.52434992  0.65290755  0.80222044    -0.01000
C2193       C  0.50685309  0.64690306  0.82304139    -0.04600
C2194       C  0.50876818  0.62948856  0.84633173     0.02400
C2195       C  0.56871232  0.61909070  0.84187517     0.09200
C2196       C  0.56243888  0.64939783  0.78594066     0.35100
C2197       C  0.49042333  0.62287292  0.86682412     0.38600
C2198       C  0.57621830  0.59873297  0.83202863    -0.05000
C2199       C  0.59727606  0.59231105  0.84016242     0.02200
C2200       C  0.61099613  0.60626693  0.85821594    -0.04600
C2201       C  0.60325055  0.62648642  0.86859726    -0.00800
C2202       C  0.58215555  0.63275436  0.86073820    -0.03400
C2203       C  0.56228043  0.58449487  0.81331029     0.35900
C2204       C  0.61731024  0.64144050  0.88563643     0.39500
C2205       C  0.60477395  0.57125402  0.83010648     0.38600
C2206       C  0.57426021  0.65345267  0.87180194     0.35500
C2207       C  0.53115090  0.60307674  0.87769699     0.36200
C2208       C  0.52219111  0.67081390  0.77828709     0.39500
N2209       N  0.61088144  0.55451778  0.82205660    -0.38600
N2210       N  0.55107410  0.57312727  0.79854204    -0.40200
N2211       N  0.62851414  0.65346934  0.89902248    -0.37900
N2212       N  0.56790143  0.66995132  0.88052521    -0.40300
N2213       N  0.57694954  0.65495231  0.76958367    -0.40100
N2214       N  0.52025451  0.68519165  0.75944360    -0.37700
N2215       N  0.47572804  0.61762392  0.88301711    -0.38800
N2216       N  0.53299456  0.59002843  0.89888902    -0.40400
C2217       C  0.28645206  0.82354738  0.87338444    -0.05400
C2218       C  0.29991107  0.81794825  0.90112687     0.08800
C2219       C  0.29668441  0.82760284  0.93324410    -0.02800
C2220       C  0.28028430  0.84284364  0.93755902    -0.01000
C2221       C  0.26656876  0.84822977  0.90997851    -0.04600
C2222       C  0.26963099  0.83838504  0.87795759     0.02400
C2223       C  0.31727694  0.80157922  0.89684913     0.09200
C2224       C  0.31021208  0.82176350  0.96202314     0.35100
C2225       C  0.25470233  0.84251035  0.85036189     0.38600
C2226       C  0.33886528  0.80805346  0.89503640    -0.05000
C2227       C  0.35524399  0.79264310  0.89149220     0.02200
C2228       C  0.35018124  0.77049365  0.88935136    -0.04600
C2229       C  0.32846438  0.76407591  0.89160793    -0.00800
C2230       C  0.31215786  0.77954927  0.89550643    -0.03400
C2231       C  0.34418290  0.83070790  0.89643076     0.35900
C2232       C  0.32276360  0.74151876  0.89066832     0.39500
C2233       C  0.37725515  0.79984712  0.88891311     0.38600
C2234       C  0.29000425  0.77283299  0.89845182     0.35500
C2235       C  0.28988423  0.81397594  0.84013335     0.36200
C2236       C  0.27788487  0.85333194  0.97035839     0.39500
N2237       N  0.39480416  0.80563908  0.88714149    -0.38600
N2238       N  0.34837526  0.84877587  0.89767089    -0.40200
N2239       N  0.31804411  0.72356998  0.88985777    -0.37900
N2240       N  0.27229719  0.76759929  0.90076267    -0.40300
N2241       N  0.32097746  0.81720256  0.98504993    -0.40100
N2242       N  0.27601864  0.86165902  0.99653619    -0.37700
N2243       N  0.24253796  0.84542990  0.82854355    -0.38800
N2244       N  0.29257263  0.80636344  0.81356527    -0.40400
C2245       C  0.42108982  0.69696474  0.64103963    -0.05400
C2246       C  0.43496473  0.71000246  0.62120531     0.08800
C2247       C  0.45086066  0.72218698  0.63742912    -0.02800
C2248       C  0.45377159  0.72036375  0.67319643    -0.01000
C2249       C  0.43980076  0.70741128  0.69332700    -0.04600
C2250       C  0.42308363  0.69614084  0.67701672     0.02400
C2251       C  0.43272477  0.71088819  0.58309551     0.09200
C2252       C  0.46356083  0.73727005  0.61728731     0.35100
C2253       C  0.40684099  0.68506083  0.69719836     0.38600
C2254       C  0.41595170  0.72275420  0.56795039    -0.05000
C2255       C  0.41271156  0.72207770  0.53229988     0.02200
C2256       C  0.42667555  0.71010457  0.51143989    -0.04600
C2257       C  0.44415632  0.69911815  0.52639196    -0.00800
C2258       C  0.44713273  0.69948207  0.56218892    -0.03400
C2259       C  0.40236647  0.73611929  0.58897474     0.35900
C2260       C  0.45951751  0.68807652  0.50496196     0.39500
C2261       C  0.39462762  0.73323310  0.51712566     0.38600
C2262       C  0.46524725  0.68849635  0.57756013     0.35500
C2263       C  0.40431043  0.68489608  0.62438709     0.36200
C2264       C  0.47133507  0.73164786  0.68906857     0.39500
N2265       N  0.38025134  0.74202138  0.50471461    -0.38600
N2266       N  0.39162548  0.74702564  0.60553118    -0.40200
N2267       N  0.47195321  0.67932749  0.48812916    -0.37900
N2268       N  0.47980466  0.67999546  0.58993549    -0.40300
N2269       N  0.47332120  0.74947188  0.60094950    -0.40100
N2270       N  0.48546985  0.74059135  0.70152072    -0.37700
N2271       N  0.39359335  0.67651214  0.71306253    -0.38800
N2272       N  0.39088191  0.67539325  0.61103388    -0.40400
C2273       C  0.41009077  0.70325105  0.14234125    -0.05400
C2274       C  0.42596494  0.71323552  0.12188559     0.08800
C2275       C  0.44383445  0.72281677  0.13749727    -0.02800
C2276       C  0.44604424  0.72203241  0.17343119    -0.01000
C2277       C  0.43040591  0.71163220  0.19389191    -0.04600
C2278       C  0.41229129  0.70240180  0.17825521     0.02400
C2279       C  0.42412657  0.71292100  0.08374541     0.09200
C2280       C  0.45984328  0.73366662  0.11658251     0.35100
C2281       C  0.39543640  0.69279365  0.19907167     0.38600
C2282       C  0.41005561  0.72707845  0.06658799    -0.05000
C2283       C  0.40740628  0.72579614  0.03075706     0.02200
C2284       C  0.41949374  0.71086047  0.01168177    -0.04600
C2285       C  0.43396640  0.69704201  0.02904532    -0.00800
C2286       C  0.43591507  0.69779972  0.06494873    -0.03400
C2287       C  0.39835379  0.74299501  0.08593326     0.35900
C2288       C  0.44771854  0.68263444  0.01010397     0.39500
C2289       C  0.39170871  0.73938112  0.01386664     0.38600
C2290       C  0.45007698  0.68292042  0.08264609     0.35500
C2291       C  0.39134743  0.69410762  0.12629038     0.36200
C2292       C  0.46460619  0.73160982  0.18933078     0.39500
N2293       N  0.37905260  0.75018879  0.00065669    -0.38600
N2294       N  0.38909261  0.75571617  0.10142481    -0.40200
N2295       N  0.45898069  0.67115823  0.99553448    -0.37900
N2296       N  0.46136774  0.67100083  0.09661260    -0.40300
N2297       N  0.47266225  0.74239157  0.10005891    -0.40100
N2298       N  0.47940158  0.73924309  0.20204907    -0.37700
N2299       N  0.38186019  0.68517850  0.21542900    -0.38800
N2300       N  0.37636969  0.68704327  0.11327403    -0.40400
C2301       C  0.39354974  0.57683047  0.86290526    -0.05400
C2302       C  0.38428868  0.57196779  0.83107373     0.08800
C2303       C  0.38312414  0.58777369  0.80505057    -0.02800
C2304       C  0.39016958  0.60876277  0.81136295    -0.01000
C2305       C  0.40009665  0.61369118  0.84295803    -0.04600
C2306       C  0.40179191  0.59750089  0.86869928     0.02400
C2307       C  0.37325650  0.55105223  0.82648451     0.09200
C2308       C  0.37411819  0.58244520  0.77198854     0.35100
C2309       C  0.41203489  0.60177255  0.90119177     0.38600
C2310       C  0.35081765  0.55026148  0.82877789    -0.05000
C2311       C  0.34022148  0.53042562  0.82753485     0.02200
C2312       C  0.35208562  0.51106760  0.82576442    -0.04600
C2313       C  0.37432978  0.51223426  0.81885486    -0.00800
C2314       C  0.38494172  0.53221232  0.81994749    -0.03400
C2315       C  0.33868917  0.56990782  0.83350201     0.35900
C2316       C  0.38638791  0.49318068  0.81030668     0.39500
C2317       C  0.31703829  0.53019733  0.82697841     0.38600
C2318       C  0.40793643  0.53339748  0.81532086     0.35500
C2319       C  0.39419703  0.56062292  0.88999142     0.36200
C2320       C  0.38571137  0.62547507  0.78608527     0.39500
N2321       N  0.29856261  0.53064149  0.82591546    -0.38600
N2322       N  0.32921298  0.58567263  0.83714726    -0.40200
N2323       N  0.39612456  0.47820991  0.80253699    -0.37900
N2324       N  0.42629362  0.53437107  0.81180195    -0.40300
N2325       N  0.36695356  0.57806453  0.74569208    -0.40100
N2326       N  0.38181019  0.63871631  0.76597288    -0.37700
N2327       N  0.42003001  0.60472670  0.92740259    -0.38800
N2328       N  0.39472234  0.54775889  0.91166755    -0.40400
C2329       C  0.44879684  0.89038945  0.37323380    -0.05400
C2330       C  0.46412633  0.87476070  0.36450561     0.08800
C2331       C  0.48575212  0.88078124  0.36008202    -0.02800
C2332       C  0.49217538  0.90204658  0.36630964    -0.01000
C2333       C  0.47681732  0.91766407  0.37513583    -0.04600
C2334       C  0.45499287  0.91190615  0.37706269     0.02400
C2335       C  0.45741580  0.85189890  0.36084528     0.09200
C2336       C  0.50146019  0.86503120  0.34954932     0.35100
C2337       C  0.43874698  0.92796843  0.38317241     0.38600
C2338       C  0.44383712  0.84592654  0.33377486    -0.05000
C2339       C  0.43592049  0.82478346  0.33217192     0.02200
C2340       C  0.44239178  0.80917716  0.35673604    -0.04600
C2341       C  0.45703517  0.81495947  0.38259649    -0.00800
C2342       C  0.46396890  0.83635555  0.38525621    -0.03400
C2343       C  0.43806591  0.86160248  0.30751340     0.35900
C2344       C  0.46609692  0.79873680  0.40530436     0.39500
C2345       C  0.42077277  0.81934587  0.30560091     0.38600
C2346       C  0.47792066  0.84237081  0.41318613     0.35500
C2347       C  0.42670895  0.88420963  0.37947790     0.36200
C2348       C  0.51453739  0.90786807  0.36275841     0.39500
N2349       N  0.40866498  0.81520662  0.28433910    -0.38600
N2350       N  0.43349151  0.87416043  0.28666320    -0.40200
N2351       N  0.47368034  0.78590181  0.42320352    -0.37900
N2352       N  0.48917319  0.84715293  0.43528217    -0.40300
N2353       N  0.51408086  0.85250499  0.34136423    -0.40100
N2354       N  0.53244516  0.91217395  0.35967716    -0.37700
N2355       N  0.42542000  0.94055052  0.38707246    -0.38800
N2356       N  0.40911820  0.87930720  0.38456258    -0.40400
C2357       C  0.32451186  0.97035636  0.44602490    -0.05400
C2358       C  0.34023956  0.95607111  0.43382021     0.08800
C2359       C  0.33438425  0.93511499  0.42414668    -0.02800
C2360       C  0.31306694  0.92816139  0.42813031    -0.01000
C2361       C  0.29744913  0.94238894  0.44091402    -0.04600
C2362       C  0.30310309  0.96367738  0.44876970     0.02400
C2363       C  0.36292124  0.96330024  0.43053464     0.09200
C2364       C  0.35025566  0.92093130  0.40939877     0.35100
C2365       C  0.28665339  0.97915235  0.45739598     0.38600
C2366       C  0.37863096  0.95481819  0.45276721    -0.05000
C2367       C  0.39992937  0.96193946  0.45003779     0.02200
C2368       C  0.40548822  0.97825065  0.42598983    -0.04600
C2369       C  0.38979816  0.98649903  0.40343035    -0.00800
C2370       C  0.36865099  0.97882383  0.40541801    -0.03400
C2371       C  0.37284886  0.93884485  0.47864330     0.35900
C2372       C  0.39510080  0.00343112  0.37893612     0.39500
C2373       C  0.41631037  0.95160204  0.47072520     0.38600
C2374       C  0.35262259  0.98717731  0.38197693     0.35500
C2375       C  0.33025768  0.99213306  0.45500618     0.36200
C2376       C  0.30726699  0.90639304  0.41913453     0.39500
N2377       N  0.42936297  0.94308085  0.48685135    -0.38600
N2378       N  0.36826909  0.92604813  0.49918825    -0.40200
N2379       N  0.39910333  0.01699157  0.35936259    -0.37900
N2380       N  0.33972064  0.99395889  0.36362102    -0.40300
N2381       N  0.36301807  0.90975266  0.39761582    -0.40100
N2382       N  0.30274793  0.88902671  0.41186352    -0.37700
N2383       N  0.27351016  0.99158102  0.46366125    -0.38800
N2384       N  0.33477988  0.00958448  0.46173079    -0.40400
C2385       C  0.47928827  0.88416005  0.83839532    -0.05400
C2386       C  0.46918317  0.87148398  0.86398944     0.08800
C2387       C  0.46619150  0.87972740  0.89717575    -0.02800
C2388       C  0.47404082  0.90019907  0.90519561    -0.01000
C2389       C  0.48400412  0.91300765  0.87957716    -0.04600
C2390       C  0.48635932  0.90505918  0.84602776     0.02400
C2391       C  0.46280358  0.84887144  0.85719856     0.09200
C2392       C  0.45477521  0.86710505  0.92293845     0.35100
C2393       C  0.49643132  0.91821337  0.81956629     0.38600
C2394       C  0.47484859  0.83196101  0.87187032    -0.05000
C2395       C  0.46740611  0.81072612  0.87012431     0.02200
C2396       C  0.44829100  0.80621786  0.85257701    -0.04600
C2397       C  0.43702009  0.82287379  0.83578992    -0.00800
C2398       C  0.44395101  0.84429015  0.83887310    -0.03400
C2399       C  0.49472670  0.83653352  0.88939658     0.35900
C2400       C  0.41805537  0.81797885  0.81607399     0.39500
C2401       C  0.47959713  0.79347991  0.88606038     0.38600
C2402       C  0.43127551  0.86160019  0.82432504     0.35500
C2403       C  0.48259915  0.87561988  0.80438773     0.36200
C2404       C  0.47141484  0.90825857  0.93968924     0.39500
N2405       N  0.48938105  0.77980970  0.89883840    -0.38600
N2406       N  0.51054036  0.84022887  0.90342859    -0.40200
N2407       N  0.40297254  0.81394928  0.80032775    -0.37900
N2408       N  0.42099466  0.87531090  0.81274584    -0.40300
N2409       N  0.44557326  0.85691663  0.94318505    -0.40100
N2410       N  0.46943134  0.91463951  0.96723942    -0.37700
N2411       N  0.50438796  0.92871287  0.79838115    -0.38800
N2412       N  0.48524305  0.86888539  0.77719350    -0.40400
C2413       C  0.38255024  0.95236955  0.95312675    -0.05400
C2414       C  0.36797117  0.96064490  0.92892179     0.08800
C2415       C  0.37482218  0.97582427  0.90410265    -0.02800
C2416       C  0.39615253  0.98306979  0.90388606    -0.01000
C2417       C  0.41096075  0.97460330  0.92780786    -0.04600
C2418       C  0.40402632  0.95920059  0.95250702     0.02400
C2419       C  0.34503535  0.95428081  0.93095317     0.09200
C2420       C  0.35980046  0.98409219  0.87895254     0.35100
C2421       C  0.41885389  0.94993043  0.97701644     0.38600
C2422       C  0.33019083  0.96809058  0.94662632    -0.05000
C2423       C  0.30856601  0.96212296  0.94920572     0.02200
C2424       C  0.30179093  0.94194536  0.93711880    -0.04600
C2425       C  0.31668198  0.92810988  0.92135607    -0.00800
C2426       C  0.33825178  0.93437522  0.91804212    -0.03400
C2427       C  0.33724271  0.98841760  0.96039545     0.35900
C2428       C  0.30996245  0.90721253  0.90937985     0.39500
C2429       C  0.29321418  0.97722021  0.96304125     0.38600
C2430       C  0.35353916  0.92034369  0.90153432     0.35500
C2431       C  0.37528334  0.93690871  0.97884932     0.36200
C2432       C  0.40248922  0.00011317  0.88022203     0.39500
N2433       N  0.28112266  0.98948123  0.97383636    -0.38600
N2434       N  0.34281554  0.00461696  0.97145117    -0.40200
N2435       N  0.30457314  0.89055781  0.89985632    -0.37900
N2436       N  0.36576393  0.90916790  0.88838577    -0.40300
N2437       N  0.34780496  0.99064157  0.85887524    -0.40100
N2438       N  0.40737271  0.01387164  0.86153839    -0.37700
N2439       N  0.43014856  0.94208267  0.99697044    -0.38800
N2440       N  0.36933939  0.92456792  0.99920315    -0.40400
C2441       C  0.49652646  0.98653018  0.63075921    -0.05400
C2442       C  0.50632825  0.00158592  0.65219295     0.08800
C2443       C  0.51525135  0.02050902  0.63787242    -0.02800
C2444       C  0.51390818  0.02465929  0.60231229    -0.01000
C2445       C  0.50342365  0.00990466  0.58073519    -0.04600
C2446       C  0.49539840  0.99044329  0.59514818     0.02400
C2447       C  0.50559258  0.99861542  0.69024706     0.09200
C2448       C  0.52502992  0.03617595  0.66012202     0.35100
C2449       C  0.48658859  0.97393234  0.57343297     0.38600
C2450       C  0.52046956  0.98523333  0.70732098    -0.05000
C2451       C  0.52052934  0.98398960  0.74349186     0.02200
C2452       C  0.50592105  0.99633388  0.76259880    -0.04600
C2453       C  0.49099032  0.00961281  0.74540536    -0.00800
C2454       C  0.49049141  0.01030266  0.70935647    -0.03400
C2455       C  0.53590687  0.97307058  0.68771967     0.35900
C2456       C  0.47719475  0.02382712  0.76465167     0.39500
C2457       C  0.53566663  0.97015697  0.76117054     0.38600
C2458       C  0.47464147  0.02333639  0.69169203     0.35500
C2459       C  0.48686834  0.96732114  0.64551052     0.36200
C2460       C  0.52287084  0.04443830  0.58841006     0.39500
N2461       N  0.54766860  0.95917444  0.77554863    -0.38600
N2462       N  0.54824784  0.96331002  0.67218225    -0.40200
N2463       N  0.46639632  0.03549265  0.77973606    -0.37900
N2464       N  0.46204499  0.03361103  0.67731282    -0.40300
N2465       N  0.53259018  0.04874072  0.67797663    -0.40100
N2466       N  0.53023355  0.06016612  0.57751425    -0.37700
N2467       N  0.47964828  0.96059539  0.55637682    -0.38800
N2468       N  0.47899300  0.95201561  0.65702271    -0.40400
C2469       C  0.51224737  0.02793532  0.13687019    -0.05400
C2470       C  0.50591348  0.00815181  0.15180125     0.08800
C2471       C  0.50109945  0.99064778  0.13075111    -0.02800
C2472       C  0.50270540  0.99286017  0.09489653    -0.01000
C2473       C  0.50762559  0.01306048  0.07971178    -0.04600
C2474       C  0.51275140  0.03053455  0.10086205     0.02400
C2475       C  0.50441780  0.00569616  0.18986621     0.09200
C2476       C  0.49398415  0.97048682  0.14601289     0.35100
C2477       C  0.51776275  0.05134329  0.08575105     0.38600
C2478       C  0.48611719  0.01292659  0.20741080    -0.05000
C2479       C  0.48513108  0.01162229  0.24353280     0.02200
C2480       C  0.50214517  0.00217211  0.26232317    -0.04600
C2481       C  0.52014699  0.99421076  0.24428967    -0.00800
C2482       C  0.52142878  0.99639667  0.20832112    -0.03400
C2483       C  0.46847702  0.02213722  0.18813248     0.35900
C2484       C  0.53737860  0.98350973  0.26249990     0.39500
C2485       C  0.46723706  0.02146490  0.26103837     0.38600
C2486       C  0.54052664  0.98958839  0.19022814     0.35500
C2487       C  0.51798081  0.04563036  0.15876738     0.36200
C2488       C  0.50012693  0.97403961  0.07378693     0.39500
N2489       N  0.45290326  0.02976368  0.27420046    -0.38600
N2490       N  0.45445832  0.02944494  0.17262023    -0.40200
N2491       N  0.55122072  0.97488344  0.27664571    -0.37900
N2492       N  0.55580294  0.98432596  0.17576790    -0.40300
N2493       N  0.48809706  0.95446223  0.15809715    -0.40100
N2494       N  0.49835493  0.95883741  0.05732722    -0.37700
N2495       N  0.52170709  0.06798610  0.07376476    -0.38800
N2496       N  0.52257241  0.05960864  0.17652444    -0.40400
C2497       C  0.46616303  0.36183459  0.31486238    -0.05400
C2498       C  0.46304430  0.38072613  0.33384514     0.08800
C2499       C  0.48038948  0.39012802  0.35106642    -0.02800
C2500       C  0.50038521  0.37985625  0.35138632    -0.01000
C2501       C  0.50293681  0.35992766  0.33511915    -0.04600
C2502       C  0.48594584  0.35108174  0.31633187     0.02400
C2503       C  0.44101569  0.38907881  0.33965924     0.09200
C2504       C  0.47723618  0.40946290  0.37077021     0.35100
C2505       C  0.48828283  0.33008905  0.30108464     0.38600
C2506       C  0.42722158  0.37804948  0.36257819    -0.05000
C2507       C  0.40650921  0.38590481  0.36884566     0.02200
C2508       C  0.39968769  0.40537139  0.35327050    -0.04600
C2509       C  0.41364587  0.41644063  0.33035903    -0.00800
C2510       C  0.43419473  0.40822223  0.32350697    -0.03400
C2511       C  0.43443060  0.35861779  0.38000406     0.35900
C2512       C  0.40707506  0.43638145  0.31387412     0.39500
C2513       C  0.39192271  0.37315726  0.38980363     0.38600
C2514       C  0.44842726  0.41949902  0.29994523     0.35500
C2515       C  0.44865899  0.35294745  0.29534904     0.36200
C2516       C  0.51759071  0.38856170  0.37186030     0.39500
N2517       N  0.38042282  0.36267542  0.40623998    -0.38600
N2518       N  0.44012604  0.34313985  0.39394600    -0.40200
N2519       N  0.40188910  0.45218979  0.30037373    -0.37900
N2520       N  0.45980886  0.42854208  0.28125611    -0.40300
N2521       N  0.47479550  0.42484358  0.38661002    -0.40100
N2522       N  0.53116849  0.39547918  0.38847571    -0.37700
N2523       N  0.49007937  0.31322081  0.28934238    -0.38800
N2524       N  0.43470394  0.34592258  0.27967316    -0.40400
C2525       C  0.54154574  0.18489859  0.43735685    -0.05400
C2526       C  0.55746829  0.16886863  0.43880611     0.08800
C2527       C  0.57893574  0.17401329  0.43094229    -0.02800
C2528       C  0.58429401  0.19494949  0.42016846    -0.01000
C2529       C  0.56855109  0.21107443  0.42007328    -0.04600
C2530       C  0.54718036  0.20611090  0.42866602     0.02400
C2531       C  0.55103249  0.14604436  0.44288084     0.09200
C2532       C  0.59525140  0.15748017  0.43262708     0.35100
C2533       C  0.53084392  0.22265347  0.42704127     0.38600
C2534       C  0.55079237  0.13304799  0.41365031    -0.05000
C2535       C  0.54296842  0.11204420  0.41611343     0.02200
C2536       C  0.53433679  0.10420731  0.44746435    -0.04600
C2537       C  0.53564346  0.11677775  0.47719778    -0.00800
C2538       C  0.54414498  0.13771982  0.47491090    -0.03400
C2539       C  0.55809906  0.14151774  0.38070409     0.35900
C2540       C  0.52761715  0.10853154  0.50969973     0.39500
C2541       C  0.54407046  0.09845978  0.38620653     0.38600
C2542       C  0.54542372  0.15090194  0.50517658     0.35500
C2543       C  0.51926361  0.17935132  0.44317763     0.36200
C2544       C  0.60560687  0.19963072  0.40732802     0.39500
N2545       N  0.54515201  0.08783341  0.36218082    -0.38600
N2546       N  0.56405302  0.14831401  0.35459388    -0.40200
N2547       N  0.52125531  0.10197054  0.53570109    -0.37900
N2548       N  0.54646270  0.16147477  0.52927338    -0.40300
N2549       N  0.60811042  0.14414442  0.43389444    -0.40100
N2550       N  0.62250723  0.20327920  0.39654230    -0.37700
N2551       N  0.51777675  0.23577948  0.42552432    -0.38800
N2552       N  0.50149523  0.17488364  0.44762777    -0.40400
C2553       C  0.59345611  0.43917332  0.33637560    -0.05400
C2554       C  0.61253873  0.44737542  0.34990895     0.08800
C2555       C  0.62449600  0.43501189  0.37359859    -0.02800
C2556       C  0.61760848  0.41428102  0.38325593    -0.01000
C2557       C  0.59870266  0.40572709  0.36910648    -0.04600
C2558       C  0.58670324  0.41827528  0.34545698     0.02400
C2559       C  0.62051937  0.46899056  0.33932216     0.09200
C2560       C  0.64410172  0.44359841  0.38779195     0.35100
C2561       C  0.56753505  0.40970576  0.32993521     0.38600
C2562       C  0.61308982  0.48731978  0.35645505    -0.05000
C2563       C  0.62468410  0.50662385  0.35390257     0.02200
C2564       C  0.64339181  0.50763552  0.33356788    -0.04600
C2565       C  0.64942287  0.49002297  0.31347428    -0.00800
C2566       C  0.63781474  0.47071653  0.31608071    -0.03400
C2567       C  0.59417318  0.48597257  0.37801590     0.35900
C2568       C  0.66828876  0.49141272  0.29179015     0.39500
C2569       C  0.61852814  0.52478221  0.37468739     0.38600
C2570       C  0.64419097  0.45232548  0.29609119     0.35500
C2571       C  0.58082060  0.45226794  0.31305350     0.36200
C2572       C  0.63076601  0.40142155  0.40620665     0.39500
N2573       N  0.61372337  0.53919956  0.39145648    -0.38600
N2574       N  0.57894803  0.48495739  0.39492769    -0.40200
N2575       N  0.68337697  0.49252599  0.27457306    -0.37900
N2576       N  0.64924569  0.43771769  0.27994626    -0.40300
N2577       N  0.65975902  0.45038906  0.39904408    -0.40100
N2578       N  0.64149547  0.39134335  0.42438376    -0.37700
N2579       N  0.55243321  0.40288903  0.31695631    -0.38800
N2580       N  0.57062530  0.46276809  0.29468426    -0.40400
C2581       C  0.48375770  0.39183863  0.89728860    -0.05400
C2582       C  0.47195099  0.39241463  0.86663632     0.08800
C2583       C  0.48135015  0.38531740  0.83590764    -0.02800
C2584       C  0.50137929  0.37498304  0.83672336    -0.01000
C2585       C  0.51150813  0.37120455  0.86850384    -0.04600
C2586       C  0.50358238  0.38126606  0.89821445     0.02400
C2587       C  0.44890704  0.39824388  0.86760427     0.09200
C2588       C  0.47006434  0.38816212  0.80378311     0.35100
C2589       C  0.51597747  0.38084386  0.92960953     0.38600
C2590       C  0.44251089  0.41991450  0.86644323    -0.05000
C2591       C  0.42072836  0.42519444  0.86980799     0.02200
C2592       C  0.40526569  0.40878657  0.87279796    -0.04600
C2593       C  0.41163120  0.38706407  0.87339940    -0.00800
C2594       C  0.43346888  0.38180767  0.87125054    -0.03400
C2595       C  0.45836781  0.43669561  0.86190633     0.35900
C2596       C  0.39571137  0.37014949  0.87591601     0.39500
C2597       C  0.41427184  0.44746664  0.87225172     0.38600
C2598       C  0.44014578  0.35950104  0.87315504     0.35500
C2599       C  0.47521012  0.40157405  0.92799603     0.36200
C2600       C  0.51129918  0.36813356  0.80510506     0.39500
N2601       N  0.40902015  0.46516784  0.87497922    -0.38600
N2602       N  0.47103578  0.45006759  0.85809805    -0.40200
N2603       N  0.38302945  0.35664845  0.87784400    -0.37900
N2604       N  0.44555688  0.34175051  0.87475231    -0.40300
N2605       N  0.46102277  0.39056580  0.77819704    -0.40100
N2606       N  0.51939394  0.36325662  0.77965791    -0.37700
N2607       N  0.52604934  0.38059884  0.95443249    -0.38800
N2608       N  0.46849833  0.40953011  0.95241888    -0.40400
C2609       C  0.55632107  0.13020480  0.91312956    -0.05400
C2610       C  0.54877397  0.14667504  0.93430728     0.08800
C2611       C  0.53373625  0.14211802  0.96049208    -0.02800
C2612       C  0.52566844  0.12107396  0.96467385    -0.01000
C2613       C  0.53296532  0.10467353  0.94300055    -0.04600
C2614       C  0.54842366  0.10926843  0.91740114     0.02400
C2615       C  0.55550598  0.16908640  0.92651518     0.09200
C2616       C  0.52618916  0.15924522  0.98222974     0.35100
C2617       C  0.55566427  0.09262348  0.89443266     0.38600
C2618       C  0.54314342  0.18175370  0.90391517    -0.05000
C2619       C  0.55052014  0.20209740  0.89307898     0.02200
C2620       C  0.57024713  0.20997588  0.90533656    -0.04600
C2621       C  0.58298395  0.19675101  0.92694084    -0.00800
C2622       C  0.57546235  0.17651068  0.93784890    -0.03400
C2623       C  0.52281894  0.17366748  0.89170097     0.35900
C2624       C  0.60418626  0.20359680  0.93717999     0.39500
C2625       C  0.53752022  0.21473785  0.86967602     0.38600
C2626       C  0.58829583  0.16319440  0.96059686     0.35500
C2627       C  0.57150851  0.13513832  0.88584441     0.36200
C2628       C  0.50919860  0.11649248  0.98997922     0.39500
N2629       N  0.52683863  0.22426231  0.85070280    -0.38600
N2630       N  0.50661998  0.16713322  0.88212633    -0.40200
N2631       N  0.62111091  0.20890977  0.94541612    -0.37900
N2632       N  0.59854011  0.15261478  0.97878038    -0.40300
N2633       N  0.52025798  0.17302693  0.99944033    -0.40100
N2634       N  0.49593690  0.11283876  0.01000846    -0.37700
N2635       N  0.56156615  0.07956195  0.87585305    -0.38800
N2636       N  0.58352578  0.13932781  0.86411660    -0.40400
C2637       C  0.59021749  0.30934156  0.68240133    -0.05400
C2638       C  0.57139681  0.31552025  0.66496277     0.08800
C2639       C  0.55247827  0.31939249  0.68382616    -0.02800
C2640       C  0.55218955  0.31631880  0.71973110    -0.01000
C2641       C  0.57111633  0.31068042  0.73713745    -0.04600
C2642       C  0.59014905  0.30727241  0.71839424     0.02400
C2643       C  0.57160443  0.31751527  0.62666507     0.09200
C2644       C  0.53345364  0.32698745  0.66634891     0.35100
C2645       C  0.60981244  0.30195542  0.73619882     0.38600
C2646       C  0.56071467  0.30235964  0.60663864    -0.05000
C2647       C  0.56240087  0.30321893  0.57062460     0.02200
C2648       C  0.57623608  0.31827064  0.55435286    -0.04600
C2649       C  0.58617155  0.33418980  0.57439504    -0.00800
C2650       C  0.58349371  0.33401332  0.61032173    -0.03400
C2651       C  0.54795808  0.28563561  0.62304789     0.35900
C2652       C  0.59959724  0.35054126  0.55853401     0.39500
C2653       C  0.54887722  0.28933841  0.55046116     0.38600
C2654       C  0.59326209  0.35067029  0.63066012     0.35500
C2655       C  0.60976229  0.30538739  0.66328089     0.36200
C2656       C  0.53224141  0.31802169  0.73850557     0.39500
N2657       N  0.53766100  0.27842544  0.53487326    -0.38600
N2658       N  0.53766538  0.27233600  0.63595745    -0.40200
N2659       N  0.61027276  0.36379071  0.54634908    -0.37900
N2660       N  0.60108668  0.36393542  0.64686532    -0.40300
N2661       N  0.51831189  0.33313525  0.65238761    -0.40100
N2662       N  0.51613220  0.31892567  0.75310936    -0.37700
N2663       N  0.62555456  0.29778461  0.75026050    -0.38800
N2664       N  0.62534381  0.30248523  0.64791772    -0.40400
C2665       C  0.57538442  0.28896852  0.10363977    -0.05400
C2666       C  0.58678688  0.30260411  0.12551853     0.08800
C2667       C  0.60182058  0.31717162  0.11139002    -0.02800
C2668       C  0.60562263  0.31794352  0.07560349    -0.01000
C2669       C  0.59378884  0.30469291  0.05333141    -0.04600
C2670       C  0.57854419  0.29021188  0.06777805     0.02400
C2671       C  0.58330759  0.30123335  0.16362048     0.09200
C2672       C  0.61336860  0.33140949  0.13385609     0.35100
C2673       C  0.56539897  0.27697460  0.04598413     0.38600
C2674       C  0.59733545  0.28900537  0.18430546    -0.05000
C2675       C  0.59430217  0.28780486  0.22019539     0.02200
C2676       C  0.57739875  0.29922479  0.23588271    -0.04600
C2677       C  0.56323889  0.31134806  0.21500042    -0.00800
C2678       C  0.56604732  0.31211477  0.17903463    -0.03400
C2679       C  0.61522837  0.27800513  0.16859193     0.35900
C2680       C  0.54569204  0.32306500  0.23045635     0.39500
C2681       C  0.60934390  0.27567007  0.24097098     0.38600
C2682       C  0.55125034  0.32428474  0.15786174     0.35500
C2683       C  0.56037304  0.27353501  0.11817607     0.36200
C2684       C  0.62238960  0.33175460  0.06200251     0.39500
N2685       N  0.62146087  0.26595848  0.25727900    -0.38600
N2686       N  0.62957655  0.26935558  0.15604599    -0.40200
N2687       N  0.53178386  0.33252723  0.24277322    -0.37900
N2688       N  0.53931778  0.33394190  0.14111534    -0.40300
N2689       N  0.62248171  0.34279339  0.15187713    -0.40100
N2690       N  0.63588193  0.34265243  0.05119138    -0.37700
N2691       N  0.55471283  0.26631779  0.02906366    -0.38800
N2692       N  0.54844985  0.26116969  0.12972282    -0.40400
C2693       C  0.62898722  0.48419016  0.87249456    -0.05400
C2694       C  0.63436789  0.46743761  0.85014682     0.08800
C2695       C  0.64866468  0.47126776  0.82260003    -0.02800
C2696       C  0.65891573  0.49135060  0.81921250    -0.01000
C2697       C  0.65495935  0.50737355  0.84349326    -0.04600
C2698       C  0.63913682  0.50421445  0.86895501     0.02400
C2699       C  0.62680290  0.44529904  0.85837578     0.09200
C2700       C  0.65355753  0.45424857  0.79887491     0.35100
C2701       C  0.63366189  0.52139530  0.89211608     0.38600
C2702       C  0.60601353  0.43884652  0.84947832    -0.05000
C2703       C  0.59820276  0.41874299  0.86076575     0.02200
C2704       C  0.61162956  0.40447203  0.87943911    -0.04600
C2705       C  0.63250631  0.41103820  0.88820206    -0.00800
C2706       C  0.63991494  0.43151953  0.87810994    -0.03400
C2707       C  0.59274017  0.45288670  0.82857017     0.35900
C2708       C  0.64669540  0.39660538  0.90667972     0.39500
C2709       C  0.57605757  0.41314381  0.85423147     0.38600
C2710       C  0.66106064  0.43857240  0.88820250     0.35500
C2711       C  0.61405135  0.48034067  0.90051314     0.36200
C2712       C  0.67388424  0.49547551  0.79141350     0.39500
N2713       N  0.55834886  0.40882799  0.84925689    -0.38600
N2714       N  0.58218348  0.46398244  0.81167277    -0.40200
N2715       N  0.65813504  0.38520970  0.92141881    -0.37900
N2716       N  0.67787902  0.44430786  0.89626222    -0.40300
N2717       N  0.65752881  0.44066717  0.77993900    -0.40100
N2718       N  0.68567687  0.49904024  0.76910453    -0.37700
N2719       N  0.62892560  0.53500180  0.91054314    -0.38800
N2720       N  0.60222895  0.47717623  0.92292810    -0.40400
C2721       C  0.87887190  0.93498431  0.44488477    -0.05400
C2722       C  0.88867713  0.94700603  0.47087827     0.08800
C2723       C  0.90667634  0.93867093  0.48794114    -0.02800
C2724       C  0.91436906  0.91803295  0.48005376    -0.01000
C2725       C  0.90342835  0.90500780  0.45611246    -0.04600
C2726       C  0.88603678  0.91400994  0.43766442     0.02400
C2727       C  0.87963869  0.96834119  0.48047324     0.09200
C2728       C  0.91697052  0.95117492  0.51428990     0.35100
C2729       C  0.87482285  0.90161688  0.41219402     0.38600
C2730       C  0.86132294  0.96934169  0.50172652    -0.05000
C2731       C  0.85083566  0.98909392  0.50659734     0.02200
C2732       C  0.85848869  0.00779944  0.48994361    -0.04600
C2733       C  0.87768276  0.00712607  0.47086042    -0.00800
C2734       C  0.88833724  0.98742319  0.46631869    -0.03400
C2735       C  0.85275064  0.94988256  0.51730900     0.35900
C2736       C  0.88567795  0.02646879  0.45405199     0.39500
C2737       C  0.83169629  0.99013442  0.52766757     0.38600
C2738       C  0.90764327  0.98661039  0.44567881     0.35500
C2739       C  0.86104543  0.94417484  0.42603987     0.36200
C2740       C  0.93380298  0.91044559  0.49645067     0.39500
N2741       N  0.81648491  0.99109628  0.54457924    -0.38600
N2742       N  0.84584159  0.93435378  0.52965263    -0.40200
N2743       N  0.89201193  0.04188313  0.44056154    -0.37900
N2744       N  0.92308604  0.98604746  0.42926937    -0.40300
N2745       N  0.92516760  0.96109580  0.53537884    -0.40100
N2746       N  0.94931597  0.90449921  0.50956247    -0.37700
N2747       N  0.86579012  0.89192328  0.39171282    -0.38800
N2748       N  0.84686687  0.95164057  0.41110604    -0.40400
C2749       C  0.62277205  0.06259934  0.45397496    -0.05400
C2750       C  0.63886970  0.05350159  0.43357224     0.08800
C2751       C  0.63343264  0.03858828  0.40815843    -0.02800
C2752       C  0.61187942  0.03244543  0.40363135    -0.01000
C2753       C  0.59553044  0.04174854  0.42391992    -0.04600
C2754       C  0.60123174  0.05739328  0.44846828     0.02400
C2755       C  0.66156144  0.05984149  0.43938901     0.09200
C2756       C  0.65012336  0.02937271  0.38701802     0.35100
C2757       C  0.58515086  0.06887558  0.46784713     0.38600
C2758       C  0.67549345  0.04576486  0.45696269    -0.05000
C2759       C  0.69654447  0.05222994  0.46426278     0.02200
C2760       C  0.70343117  0.07327975  0.45563143    -0.04600
C2761       C  0.68914692  0.08761175  0.43905262    -0.00800
C2762       C  0.66849666  0.08070760  0.43015998    -0.03400
C2763       C  0.66801086  0.02472944  0.46808915     0.35900
C2764       C  0.69538853  0.10972268  0.43217769     0.39500
C2765       C  0.71125703  0.03679448  0.47928961     0.38600
C2766       C  0.65418541  0.09517615  0.41192385     0.35500
C2767       C  0.62849787  0.07717888  0.48123626     0.36200
C2768       C  0.60689119  0.01605870  0.37887091     0.39500
N2769       N  0.72285185  0.02425575  0.49102520    -0.38600
N2770       N  0.66203146  0.00798719  0.47709157    -0.40200
N2771       N  0.70031273  0.12738236  0.42692921    -0.37900
N2772       N  0.64270671  0.10667890  0.39747023    -0.40300
N2773       N  0.66347733  0.02198839  0.37027772    -0.40100
N2774       N  0.60325824  0.00296481  0.35896276    -0.37700
N2775       N  0.57292217  0.07842375  0.48389760    -0.38800
N2776       N  0.63313195  0.08873511  0.50295673    -0.40400
C2777       C  0.71458775  0.19336808  0.48116652    -0.05400
C2778       C  0.70812638  0.20337644  0.45030878     0.08800
C2779       C  0.71691728  0.19661746  0.41883578    -0.02800
C2780       C  0.73221886  0.17994656  0.41825113    -0.01000
C2781       C  0.73900276  0.17013229  0.44929224    -0.04600
C2782       C  0.72968122  0.17665675  0.48068420     0.02400
C2783       C  0.69133754  0.22044948  0.45111652     0.09200
C2784       C  0.71013259  0.20682176  0.38705266     0.35100
C2785       C  0.73466471  0.16547810  0.51258848     0.38600
C2786       C  0.69697336  0.24222501  0.44695492    -0.05000
C2787       C  0.68100759  0.25821306  0.44712534     0.02200
C2788       C  0.65918419  0.25255106  0.45161832    -0.04600
C2789       C  0.65401406  0.23086577  0.45957983    -0.00800
C2790       C  0.66985808  0.21482408  0.45764045    -0.03400
C2791       C  0.71919977  0.24811295  0.44159662     0.35900
C2792       C  0.63256967  0.22471758  0.46992603     0.39500
C2793       C  0.68727472  0.28055433  0.44357633     0.38600
C2794       C  0.66394227  0.19233257  0.46079092     0.35500
C2795       C  0.70553978  0.20017738  0.51359363     0.36200
C2796       C  0.74093185  0.17299970  0.38570917     0.39500
N2797       N  0.69264546  0.29827835  0.44095298    -0.38600
N2798       N  0.73690261  0.25280433  0.43707150    -0.40200
N2799       N  0.61573911  0.21936026  0.47902206    -0.37900
N2800       N  0.65929759  0.17437518  0.46287813    -0.40300
N2801       N  0.70478966  0.21505806  0.36172934    -0.40100
N2802       N  0.74773755  0.16727859  0.35974982    -0.37700
N2803       N  0.73843434  0.15658824  0.53809896    -0.38800
N2804       N  0.69833697  0.20544376  0.53952783    -0.40400
C2805       C  0.93279492  0.10601834  0.50375557    -0.05400
C2806       C  0.93957466  0.12619452  0.49125885     0.08800
C2807       C  0.92540138  0.13943514  0.47257950    -0.02800
C2808       C  0.90433730  0.13259931  0.46658997    -0.01000
C2809       C  0.89754025  0.11211580  0.47837526    -0.04600
C2810       C  0.91191756  0.09882932  0.49701056     0.02400
C2811       C  0.96214273  0.13310378  0.49537115     0.09200
C2812       C  0.93267035  0.16005469  0.45915704     0.35100
C2813       C  0.90560588  0.07746785  0.50844821     0.38600
C2814       C  0.97756107  0.12631755  0.47140521    -0.05000
C2815       C  0.99788729  0.13590740  0.47079111     0.02200
C2816       C  0.00271338  0.15236909  0.49399598    -0.04600
C2817       C  0.98787682  0.15802495  0.51960032    -0.00800
C2818       C  0.96755251  0.14830205  0.52037950    -0.03400
C2819       C  0.97197761  0.11046384  0.44603167     0.35900
C2820       C  0.99306103  0.17478749  0.54362895     0.39500
C2821       C  0.01351023  0.12960394  0.44520880     0.38600
C2822       C  0.95181209  0.15471959  0.54563857     0.35500
C2823       C  0.94744585  0.09259989  0.52323970     0.36200
C2824       C  0.88957639  0.14713611  0.44951656     0.39500
N2825       N  0.02597882  0.12454725  0.42485446    -0.38600
N2826       N  0.96735693  0.09786003  0.42584249    -0.40200
N2827       N  0.99722550  0.18819674  0.56272349    -0.37900
N2828       N  0.93925542  0.15988645  0.56577744    -0.40300
N2829       N  0.93855511  0.17644657  0.44844087    -0.40100
N2830       N  0.87804772  0.15906303  0.43609503    -0.37700
N2831       N  0.90078413  0.06040763  0.51773007    -0.38800
N2832       N  0.95911727  0.08189892  0.53881190    -0.40400
C2833       C  0.87921337  0.93593687  0.98157088    -0.05400
C2834       C  0.89170607  0.94799614  0.00442816     0.08800
C2835       C  0.91054110  0.93908637  0.01810751    -0.02800
C2836       C  0.91695254  0.91819571  0.00901886    -0.01000
C2837       C  0.90450855  0.90596393  0.98593687    -0.04600
C2838       C  0.88553998  0.91504090  0.97235038     0.02400
C2839       C  0.88476648  0.97012840  0.01391951     0.09200
C2840       C  0.92325315  0.95147783  0.04176345     0.35100
C2841       C  0.87186371  0.90269095  0.95008804     0.38600
C2842       C  0.86729758  0.97292294  0.03648541    -0.05000
C2843       C  0.85795033  0.99335367  0.04000448     0.02200
C2844       C  0.86556036  0.01080542  0.02009573    -0.04600
C2845       C  0.88425004  0.00846887  0.00007296    -0.00800
C2846       C  0.89411234  0.98821194  0.99755735    -0.03400
C2847       C  0.85799393  0.95448080  0.05405984     0.35900
C2848       C  0.89190865  0.02632084  0.97905477     0.39500
C2849       C  0.83947633  0.99616518  0.06208928     0.38600
C2850       C  0.91301287  0.98573590  0.97630937     0.35500
C2851       C  0.85958593  0.94501777  0.96789911     0.36200
C2852       C  0.93661643  0.90960411  0.02326357     0.39500
N2853       N  0.82478373  0.99845440  0.07979815    -0.38600
N2854       N  0.85044140  0.93970592  0.06774856    -0.40200
N2855       N  0.89787204  0.04046056  0.96197803    -0.37900
N2856       N  0.92821011  0.98390951  0.95957310    -0.40300
N2857       N  0.93337407  0.96145876  0.06051915    -0.40100
N2858       N  0.95227656  0.90296506  0.03501399    -0.37700
N2859       N  0.86065305  0.89312888  0.93238937    -0.38800
N2860       N  0.84387453  0.95227534  0.95730587    -0.40400
C2861       C  0.63775261  0.03950575  0.90580873    -0.05400
C2862       C  0.64281486  0.05622594  0.92838402     0.08800
C2863       C  0.62630349  0.06755472  0.94473981    -0.02800
C2864       C  0.60485696  0.06130389  0.94039647    -0.01000
C2865       C  0.59962070  0.04390933  0.91876373    -0.04600
C2866       C  0.61622795  0.03367025  0.90036491     0.02400
C2867       C  0.66561309  0.06175336  0.93547271     0.09200
C2868       C  0.63145487  0.08559117  0.96643080     0.35100
C2869       C  0.61147237  0.01672314  0.87648765     0.38600
C2870       C  0.67499937  0.07996171  0.91976072    -0.05000
C2871       C  0.69648296  0.08520120  0.92647166     0.02200
C2872       C  0.70870640  0.07239022  0.94949884    -0.04600
C2873       C  0.69923192  0.05401817  0.96497687    -0.00800
C2874       C  0.67774247  0.04881015  0.95808462    -0.03400
C2875       C  0.66247449  0.09325973  0.89651294     0.35900
C2876       C  0.71187823  0.03958095  0.98617875     0.39500
C2877       C  0.70590928  0.10371005  0.90918277     0.38600
C2878       C  0.66811317  0.02990430  0.97388658     0.35500
C2879       C  0.65482913  0.02796554  0.88880955     0.36200
C2880       C  0.58838079  0.07311322  0.95836421     0.39500
N2881       N  0.71323898  0.11832707  0.89476262    -0.38600
N2882       N  0.65239194  0.10389098  0.87816621    -0.40200
N2883       N  0.72182858  0.02779945  0.00284289    -0.37900
N2884       N  0.66042040  0.01477119  0.98629146    -0.40300
N2885       N  0.63551455  0.10009905  0.98343730    -0.40100
N2886       N  0.57580226  0.08286548  0.97339375    -0.37700
N2887       N  0.60799375  0.00333975  0.85701228    -0.38800
N2888       N  0.66849536  0.01865150  0.87556280    -0.40400
C2889       C  0.71003087  0.17554067  0.94319201    -0.05400
C2890       C  0.71075049  0.19062052  0.91595031     0.08800
C2891       C  0.72682347  0.18904792  0.89055073    -0.02800
C2892       C  0.74263756  0.17292236  0.89315592    -0.01000
C2893       C  0.74241562  0.15840638  0.92124249    -0.04600
C2894       C  0.72586573  0.15957817  0.94595223     0.02400
C2895       C  0.69485373  0.20852096  0.91477849     0.09200
C2896       C  0.72730706  0.20437230  0.86224357     0.35100
C2897       C  0.72505141  0.14427912  0.97430053     0.38600
C2898       C  0.69748569  0.22648213  0.93611957    -0.05000
C2899       C  0.68216057  0.24306668  0.93595712     0.02200
C2900       C  0.66432093  0.24185412  0.91421473    -0.04600
C2901       C  0.66162045  0.22391292  0.89291780    -0.00800
C2902       C  0.67685163  0.20725006  0.89323836    -0.03400
C2903       C  0.71614289  0.22802573  0.95787061     0.35900
C2904       C  0.64294605  0.22248965  0.87108935     0.39500
C2905       C  0.68485966  0.26157671  0.95766505     0.38600
C2906       C  0.67406618  0.18880642  0.87141187     0.35500
C2907       C  0.69304059  0.17661979  0.96857653     0.36200
C2908       C  0.75964395  0.17187580  0.86786737     0.39500
N2909       N  0.68690293  0.27640456  0.97489317    -0.38600
N2910       N  0.73104382  0.22932572  0.97519591    -0.40200
N2911       N  0.62795412  0.22136940  0.85392153    -0.37900
N2912       N  0.67192669  0.17412895  0.85388871    -0.40300
N2913       N  0.72755484  0.21663029  0.83967560    -0.40100
N2914       N  0.77324385  0.17107949  0.84771099    -0.37700
N2915       N  0.72420541  0.13212878  0.99695952    -0.38800
N2916       N  0.67947732  0.17751480  0.98878289    -0.40400
C2917       C  0.79135890  0.08504098  0.67896126    -0.05400
C2918       C  0.80716985  0.07260081  0.69539818     0.08800
C2919       C  0.82038856  0.05906737  0.67585388    -0.02800
C2920       C  0.81793408  0.05814135  0.63987305    -0.01000
C2921       C  0.80247935  0.07115699  0.62305045    -0.04600
C2922       C  0.78921556  0.08463227  0.64302310     0.02400
C2923       C  0.81012359  0.07447152  0.73332597     0.09200
C2924       C  0.83681248  0.04644376  0.69279669     0.35100
C2925       C  0.77434469  0.09943534  0.62690622     0.38600
C2926       C  0.79971000  0.06003515  0.75599398    -0.05000
C2927       C  0.80067019  0.06316541  0.79174039     0.02200
C2928       C  0.81197256  0.08088127  0.80506063    -0.04600
C2929       C  0.82296800  0.09490651  0.78230142    -0.00800
C2930       C  0.82195682  0.09175523  0.74657716    -0.03400
C2931       C  0.78756824  0.04226356  0.74235502     0.35900
C2932       C  0.83458005  0.11316161  0.79544360     0.39500
C2933       C  0.79031616  0.04787889  0.81477453     0.38600
C2934       C  0.83253352  0.10672241  0.72327124     0.35500
C2935       C  0.77761477  0.09881110  0.69916419     0.36200
C2936       C  0.83128219  0.04366515  0.62031943     0.39500
N2937       N  0.78208550  0.03554091  0.83294125    -0.38600
N2938       N  0.77788698  0.02812750  0.73133815    -0.40200
N2939       N  0.84387137  0.12776995  0.80573204    -0.37900
N2940       N  0.84088690  0.11873237  0.70469113    -0.40300
N2941       N  0.84996336  0.03643291  0.70633322    -0.40100
N2942       N  0.84194177  0.03210924  0.60476331    -0.37700
N2943       N  0.76249776  0.11168161  0.61508012    -0.38800
N2944       N  0.76669233  0.10980734  0.71526868    -0.40400
C2945       C  0.81470269  0.07337704  0.18316198    -0.05400
C2946       C  0.80208329  0.08975901  0.19749847     0.08800
C2947       C  0.78974254  0.10310484  0.17593473    -0.02800
C2948       C  0.79050583  0.10063161  0.14009039    -0.01000
C2949       C  0.80272065  0.08391530  0.12542935    -0.04600
C2950       C  0.81513685  0.07049530  0.14724958     0.02400
C2951       C  0.80175101  0.09318956  0.23542612     0.09200
C2952       C  0.77603207  0.11931769  0.19084160     0.35100
C2953       C  0.82849587  0.05380572  0.13293141     0.38600
C2954       C  0.81465770  0.10920713  0.25001813    -0.05000
C2955       C  0.81345129  0.11324858  0.28551898     0.02200
C2956       C  0.79998310  0.10062474  0.30700415    -0.04600
C2957       C  0.78702548  0.08458171  0.29211659    -0.00800
C2958       C  0.78769599  0.08117133  0.25644914    -0.03400
C2959       C  0.82918719  0.12153097  0.22835044     0.35900
C2960       C  0.77344139  0.07095110  0.31335454     0.39500
C2961       C  0.82533294  0.13107526  0.29953205     0.38600
C2962       C  0.77382835  0.06530882  0.24115453     0.35500
C2963       C  0.82700755  0.05935666  0.20557787     0.36200
C2964       C  0.78007234  0.11652411  0.11842710     0.39500
N2965       N  0.83463115  0.14551277  0.31040181    -0.38600
N2966       N  0.84081753  0.13128200  0.21101275    -0.40200
N2967       N  0.76250257  0.05992069  0.32986724    -0.37900
N2968       N  0.76273888  0.05275319  0.22878192    -0.40300
N2969       N  0.76496548  0.13207964  0.20286438    -0.40100
N2970       N  0.77201494  0.12966060  0.10168603    -0.37700
N2971       N  0.83936755  0.04062747  0.12160370    -0.38800
N2972       N  0.83665094  0.04815826  0.22368582    -0.40400
C2973       C  0.93540405  0.12674011  0.96769476    -0.05400
C2974       C  0.94747379  0.11601484  0.99309815     0.08800
C2975       C  0.93834361  0.09917877  0.01253012    -0.02800
C2976       C  0.91716327  0.09271830  0.00612854    -0.01000
C2977       C  0.90494550  0.10334814  0.98034778    -0.04600
C2978       C  0.91416416  0.12060537  0.96153578     0.02400
C2979       C  0.96980654  0.12302421  0.99918995     0.09200
C2980       C  0.95068637  0.08883602  0.03949493     0.35100
C2981       C  0.90151277  0.13319375  0.93753495     0.38600
C2982       C  0.97395077  0.13895452  0.02362497    -0.05000
C2983       C  0.99361580  0.14988573  0.02294997     0.02200
C2984       C  0.00889147  0.14494538  0.99768103    -0.04600
C2985       C  0.00563355  0.12749342  0.97562910    -0.00800
C2986       C  0.98608422  0.11637228  0.97662881    -0.03400
C2987       C  0.95748489  0.14500055  0.04789916     0.35900
C2988       C  0.02201383  0.12166162  0.95097971     0.39500
C2989       C  0.99760889  0.16721837  0.04654349     0.38600
C2990       C  0.98210990  0.09893888  0.95321009     0.35500
C2991       C  0.94473596  0.14460840  0.94852412     0.36200
C2992       C  0.90808527  0.07518737  0.02633624     0.39500
N2993       N  0.00096798  0.18105008  0.06527420    -0.38600
N2994       N  0.94435952  0.14980688  0.06732697    -0.40200
N2995       N  0.03514818  0.11694887  0.93148887    -0.37900
N2996       N  0.97874758  0.08498146  0.93471573    -0.40300
N2997       N  0.96051764  0.08074242  0.06116213    -0.40100
N2998       N  0.90089471  0.06133174  0.04276859    -0.37700
N2999       N  0.89167035  0.14362786  0.91859110    -0.38800
N3000       N  0.95215711  0.15887253  0.93331866    -0.40400
loop_ 
_geom_bond_atom_site_label_1 
_geom_bond_atom_site_label_2 
_geom_bond_distance 
_geom_bond_site_symmetry_2 
_ccdc_geom_bond_type 
Zr1           O2   2.445       .  S
Zr1           O3   2.447       .  S
Zr1           O4   2.437       .  S
Zr1           O7   2.399       .  S
Zr1           O9   2.380       .  S
Zr1          O10   2.390   1_554  S
Zr1          O11   2.406       .  S
Zr1          O12   2.406   1_554  S
O2           H58   0.991       .  S
O2           H66   0.991       .  S
O3           C23   1.285       .  A
O4           C25   1.283       .  A
O5          Zr15   2.447       .  S
O5           C24   1.288       .  A
O6          Zr14   2.447       .  S
O6           C25   1.287       .  A
O7           C24   1.278   1_554  A
O8          Zr16   2.399       .  S
O8           C23   1.277   1_556  A
O9          Zr14   2.392       .  S
O9          Zr16   2.377   1_554  S
O10         Zr15   2.390       .  S
O10         Zr16   2.380       .  S
O10          H45   0.965       .  S
O11         Zr14   2.408       .  S
O11         Zr31   2.395   1_554  S
O11          H48   0.965       .  S
O12         Zr15   2.388       .  S
O12         Zr31   2.387       .  S
Zr13         O38   2.441       .  S
Zr13         O32   2.456       .  S
Zr13         O40   2.435       .  S
Zr13         O28   2.416       .  S
Zr13         O19   2.397       .  S
Zr13         O20   2.414       .  S
Zr13         O21   2.377       .  S
Zr13         O22   2.381       .  S
Zr14         O33   2.433       .  S
Zr14         O26   2.432       .  S
Zr14         O27   2.451   1_554  S
Zr14         O20   2.400   1_554  S
Zr14         O21   2.390   1_554  S
Zr15         O17   2.433       .  S
Zr15         O39   2.439       .  S
Zr15         O41   2.438       .  S
Zr15         O19   2.389       .  S
Zr15         O22   2.396       .  S
Zr16         O42   2.435       .  S
Zr16         O43   2.434       .  S
Zr16         O18   2.437       .  S
Zr16         O19   2.388       .  S
Zr16         O20   2.384       .  S
O17          H54   0.990       .  S
O18          H49   0.990       .  S
O18          H63   0.990   1_556  S
O20          H46   0.965       .  S
O21         Zr31   2.374       .  S
O22         Zr31   2.384       .  S
O22          H47   0.965       .  S
C23        C2844   1.471       .  S
C24        C2977   1.485       .  S
C25        C2949   1.494       .  S
O26          H62   0.990       .  S
O27          C29   1.289       .  A
O28          C29   1.280       .  A
C29        C2872   1.488       .  S
O30         Zr31   2.437       .  S
O30          H59   0.990   1_556  S
Zr31         O34   2.436   1_556  S
Zr31         O35   2.440       .  S
Zr31         O36   2.405       .  S
O32          C37   1.287       .  A
O33          H50   0.990       .  S
O33          H65   0.989       .  S
O34          H51   0.990       .  S
O35          H55   0.990       .  S
O35          H64   0.990       .  S
O36          C37   1.279       .  A
C37        C2893   1.480       .  S
O38          H57   0.991       .  S
O38          H61   0.990       .  S
O39          H53   0.990       .  S
O39          H60   0.990       .  S
O40          C44   1.284       .  A
O41          C44   1.285       .  A
O42          H52   0.990       .  S
O43          H56   0.990       .  S
C44        C2928   1.488       .  S
Zr67         O68   2.443       .  S
Zr67         O69   2.447       .  S
Zr67         O70   2.448       .  S
Zr67         O73   2.418       .  S
Zr67         O75   2.379       .  S
Zr67         O76   2.387       .  S
Zr67         O77   2.412       .  S
Zr67         O78   2.403       .  S
O68         H124   0.990       .  S
O68         H132   0.990       .  S
O69          C89   1.283       .  A
O70          C91   1.285       .  A
O71         Zr81   2.433       .  S
O71          C90   1.285       .  A
O72         Zr80   2.438       .  S
O72          C91   1.286       .  A
O73          C90   1.282       .  A
O74         Zr82   2.399       .  S
O74          C89   1.277       .  A
O75         Zr80   2.396       .  S
O75         Zr82   2.380       .  S
O76         Zr81   2.396       .  S
O76         Zr82   2.378       .  S
O76         H111   0.965       .  S
O77         Zr80   2.407       .  S
O77         Zr97   2.394       .  S
O77         H114   0.963       .  S
O78         Zr81   2.385       .  S
O78         Zr97   2.377       .  S
Zr79        O104   2.443       .  S
Zr79         O98   2.443       .  S
Zr79        O106   2.446       .  S
Zr79         O94   2.431       .  S
Zr79         O85   2.395       .  S
Zr79         O86   2.412       .  S
Zr79         O87   2.379       .  S
Zr79         O88   2.386       .  S
Zr80         O99   2.431       .  S
Zr80         O92   2.434       .  S
Zr80         O93   2.432       .  S
Zr80         O86   2.401       .  S
Zr80         O87   2.392       .  S
Zr81         O83   2.434       .  S
Zr81        O105   2.436       .  S
Zr81        O107   2.431       .  S
Zr81         O85   2.388       .  S
Zr81         O88   2.397       .  S
Zr82        O108   2.435       .  S
Zr82        O109   2.435       .  S
Zr82         O84   2.437       .  S
Zr82         O85   2.382       .  S
Zr82         O86   2.381       .  S
O83         H120   0.990       .  S
O84         H115   0.990       .  S
O84         H129   0.990       .  S
O86         H112   0.964       .  S
O87         Zr97   2.379       .  S
O88         Zr97   2.380       .  S
O88         H113   0.967       .  S
C89        C2732   1.473       .  S
C90        C2809   1.481       .  S
C91        C2921   1.495       .  S
O92         H128   0.990       .  S
O93          C95   1.285       .  A
O94          C95   1.282       .  A
C95        C2760   1.483       .  S
O96         Zr97   2.437       .  S
O96         H125   0.990       .  S
Zr97        O100   2.437       .  S
Zr97        O101   2.437       .  S
Zr97        O102   2.399       .  S
O98         C103   1.284       .  A
O99         H116   0.990       .  S
O99         H131   0.988       .  S
O100        H117   0.989       .  S
O101        H121   0.990       .  S
O101        H130   0.990       .  S
O102        C103   1.279       .  A
C103       C2781   1.489       .  S
O104        H123   0.990       .  S
O104        H127   0.990       .  S
O105        H119   0.990       .  S
O105        H126   0.990       .  S
O106        C110   1.287       .  A
O107        C110   1.285       .  A
O108        H118   0.990       .  S
O109        H122   0.990       .  S
C110       C2956   1.492       .  S
Zr133       O134   2.442       .  S
Zr133       O135   2.429       .  S
Zr133       O136   2.444       .  S
Zr133       O139   2.400       .  S
Zr133       O141   2.377       .  S
Zr133       O142   2.388       .  S
Zr133       O143   2.401       .  S
Zr133       O144   2.402       .  S
O134        H190   0.990       .  S
O134        H198   0.990       .  S
O135        C155   1.280       .  A
O136        C157   1.283       .  A
O137       Zr147   2.450       .  S
O137        C156   1.288       .  A
O138       Zr146   2.428       .  S
O138        C157   1.282       .  A
O139        C156   1.278       .  A
O140       Zr148   2.409       .  S
O140        C155   1.280       .  A
O141       Zr146   2.400       .  S
O141       Zr148   2.382       .  S
O142       Zr147   2.396       .  S
O142       Zr148   2.377       .  S
O142        H177   0.965       .  S
O143       Zr146   2.402       .  S
O143       Zr163   2.390       .  S
O143        H180   0.964       .  S
O144       Zr147   2.393       .  S
O144       Zr163   2.382       .  S
Zr145       O170   2.444       .  S
Zr145       O164   2.437       .  S
Zr145       O172   2.448       .  S
Zr145       O160   2.414       .  S
Zr145       O151   2.393       .  S
Zr145       O152   2.417       .  S
Zr145       O153   2.376       .  S
Zr145       O154   2.385       .  S
Zr146       O165   2.436       .  S
Zr146       O158   2.431       .  S
Zr146       O159   2.438       .  S
Zr146       O152   2.398       .  S
Zr146       O153   2.387       .  S
Zr147       O149   2.436       .  S
Zr147       O171   2.440       .  S
Zr147       O173   2.446   1_556  S
Zr147       O151   2.393       .  S
Zr147       O154   2.403       .  S
Zr148       O174   2.435       .  S
Zr148       O175   2.436       .  S
Zr148       O150   2.437       .  S
Zr148       O151   2.387       .  S
Zr148       O152   2.388       .  S
O149        H186   0.990       .  S
O150        H181   0.990       .  S
O150        H195   0.990       .  S
O152        H178   0.964       .  S
O153       Zr163   2.375       .  S
O154       Zr163   2.387       .  S
O154        H179   0.967       .  S
C155       C2585   1.478       .  S
C156       C2704   1.483       .  S
C157       C2641   1.477       .  S
O158        H194   0.990       .  S
O159        C161   1.286       .  A
O160        C161   1.281       .  A
C161       C2620   1.481       .  S
O162       Zr163   2.437       .  S
O162        H191   0.990       .  S
Zr163       O166   2.436       .  S
Zr163       O167   2.437       .  S
Zr163       O168   2.408       .  S
O164        C169   1.282       .  A
O165        H182   0.990       .  S
O165        H197   0.990       .  S
O166        H183   0.990       .  S
O167        H187   0.990       .  S
O167        H196   0.990       .  S
O168        C169   1.277       .  A
C169       C2900   1.474       .  S
O170        H189   0.990       .  S
O170        H193   0.989       .  S
O171        H185   0.990       .  S
O171        H192   0.990       .  S
O172        C176   1.285   1_556  A
O173        C176   1.287       .  A
O174        H184   0.990       .  S
O175        H188   0.990       .  S
C176       C2669   1.501       .  S
Zr199       O200   2.443       .  S
Zr199       O201   2.437       .  S
Zr199       O202   2.432       .  S
Zr199       O205   2.414       .  S
Zr199       O207   2.380       .  S
Zr199       O208   2.385       .  S
Zr199       O209   2.404       .  S
Zr199       O210   2.397       .  S
O200        H256   0.990       .  S
O200        H264   0.991       .  S
O201        C221   1.283       .  A
O202        C223   1.282       .  A
O203       Zr213   2.433       .  S
O203        C222   1.285       .  A
O204       Zr212   2.444       .  S
O204        C223   1.287       .  A
O205        C222   1.281       .  A
O206       Zr214   2.394       .  S
O206        C221   1.276       .  A
O207       Zr212   2.392       .  S
O207       Zr214   2.380       .  S
O208       Zr213   2.386       .  S
O208       Zr214   2.379       .  S
O208        H243   0.965       .  S
O209       Zr212   2.401       .  S
O209       Zr229   2.393       .  S
O209        H246   0.965       .  S
O210       Zr213   2.387       .  S
O210       Zr229   2.383       .  S
Zr211       O236   2.441       .  S
Zr211       O230   2.445       .  S
Zr211       O238   2.433       .  S
Zr211       O226   2.422       .  S
Zr211       O217   2.399       .  S
Zr211       O218   2.413       .  S
Zr211       O219   2.378       .  S
Zr211       O220   2.380       .  S
Zr212       O231   2.435       .  S
Zr212       O224   2.435       .  S
Zr212       O225   2.421       .  S
Zr212       O218   2.402       .  S
Zr212       O219   2.398       .  S
Zr213       O215   2.432       .  S
Zr213       O237   2.437       .  S
Zr213       O239   2.428       .  S
Zr213       O217   2.386       .  S
Zr213       O220   2.400       .  S
Zr214       O240   2.437       .  S
Zr214       O241   2.435       .  S
Zr214       O216   2.436       .  S
Zr214       O217   2.387       .  S
Zr214       O218   2.380       .  S
O215        H252   0.990       .  S
O216        H247   0.990       .  S
O216        H261   0.990       .  S
O218        H244   0.963       .  S
O219       Zr229   2.375       .  S
O220       Zr229   2.385       .  S
O220        H245   0.965       .  S
C221       C2501   1.466       .  S
C222       C2557   1.483       .  S
C223       C2676   1.492       .  S
O224        H260   0.990       .  S
O225        C227   1.281       .  A
O226        C227   1.280       .  A
C227       C2529   1.462       .  S
O228       Zr229   2.436       .  S
O228        H257   0.990       .  S
Zr229       O232   2.437       .  S
Zr229       O233   2.439       .  S
Zr229       O234   2.414       .  S
O230        C235   1.285       .  A
O231        H248   0.990       .  S
O231        H263   0.990       .  S
O232        H249   0.990       .  S
O233        H253   0.990       .  S
O233        H262   0.989       .  S
O234        C235   1.280       .  A
C235       C2788   1.497       .  S
O236        H255   0.990       .  S
O236        H259   0.989       .  S
O237        H251   0.990       .  S
O237        H258   0.990       .  S
O238        C242   1.285       .  A
O239        C242   1.283       .  A
O240        H250   0.990       .  S
O241        H254   0.990       .  S
C242       C2648   1.490       .  S
Zr265       O266   2.439       .  S
Zr265       O267   2.423       .  S
Zr265       O268   2.437       .  S
Zr265       O271   2.437       .  S
Zr265       O273   2.385       .  S
Zr265       O274   2.381       .  S
Zr265       O275   2.405   1_565  S
Zr265       O276   2.399   1_565  S
O266        H322   0.990       .  S
O266        H330   0.989   1_565  S
O267        C287   1.281       .  A
O268        C289   1.284       .  A
O269       Zr279   2.422   1_565  S
O269        C288   1.281       .  A
O270       Zr278   2.431       .  S
O270        C289   1.283   1_545  A
O271        C288   1.285       .  A
O272       Zr280   2.426       .  S
O272        C287   1.282       .  A
O273       Zr278   2.398   1_565  S
O273       Zr280   2.373       .  S
O274       Zr279   2.393   1_565  S
O274       Zr280   2.377       .  S
O274        H309   0.967       .  S
O275       Zr278   2.406       .  S
O275       Zr295   2.383       .  S
O275        H312   0.966       .  S
O276       Zr279   2.388       .  S
O276       Zr295   2.389       .  S
Zr277       O302   2.441   1_556  S
Zr277       O296   2.445       .  S
Zr277       O304   2.442   1_556  S
Zr277       O292   2.420       .  S
Zr277       O283   2.393   1_545  S
Zr277       O284   2.417       .  S
Zr277       O285   2.376       .  S
Zr277       O286   2.383       .  S
Zr278       O297   2.437       .  S
Zr278       O290   2.434   1_545  S
Zr278       O291   2.450       .  S
Zr278       O284   2.401       .  S
Zr278       O285   2.386       .  S
Zr279       O281   2.435       .  S
Zr279       O303   2.432   1_546  S
Zr279       O305   2.409   1_556  S
Zr279       O283   2.388   1_545  S
Zr279       O286   2.393       .  S
Zr280       O306   2.434       .  S
Zr280       O307   2.436       .  S
Zr280       O282   2.437       .  S
Zr280       O283   2.394       .  S
Zr280       O284   2.400   1_565  S
O281        H318   0.990   1_556  S
O282        H313   0.990       .  S
O282        H327   0.990       .  S
O284        H310   0.966   1_545  S
O285       Zr295   2.377       .  S
O286       Zr295   2.385       .  S
O286        H311   0.967       .  S
C287       C2389   1.478       .  S
C288       C2417   1.484       .  S
C289       C2452   1.478       .  S
O290        H326   0.990       .  S
O291        C293   1.288       .  A
O292        C293   1.281       .  A
C293       C2865   1.494       .  S
O294       Zr295   2.436       .  S
O294        H323   0.990       .  S
Zr295       O298   2.436       .  S
Zr295       O299   2.435       .  S
Zr295       O300   2.397       .  S
O296        C301   1.284       .  A
O297        H314   0.990       .  S
O297        H329   0.990       .  S
O298        H315   0.990       .  S
O299        H319   0.990       .  S
O299        H328   0.990       .  S
O300        C301   1.276       .  A
C301       C2613   1.472       .  S
O302        H321   0.990       .  S
O302        H325   0.989       .  S
O303        H317   0.990       .  S
O303        H324   0.989       .  S
O304        C308   1.285       .  A
O305        C308   1.280       .  A
O306        H316   0.990       .  S
O307        H320   0.990       .  S
C308       C2473   1.483       .  S
Zr331       O332   2.437       .  S
Zr331       O333   2.428       .  S
Zr331       O334   2.455       .  S
Zr331       O337   2.426       .  S
Zr331       O339   2.381       .  S
Zr331       O340   2.388       .  S
Zr331       O341   2.407   1_565  S
Zr331       O342   2.410   1_565  S
O332        H388   0.990       .  S
O332        H396   0.988   1_565  S
O333        C353   1.282       .  A
O334        C355   1.288   1_565  A
O335       Zr345   2.420   1_565  S
O335        C354   1.280       .  A
O336       Zr344   2.423       .  S
O336        C355   1.283       .  A
O337        C354   1.283       .  A
O338       Zr346   2.410       .  S
O338        C353   1.280       .  A
O339       Zr344   2.398   1_565  S
O339       Zr346   2.379       .  S
O340       Zr345   2.401   1_565  S
O340       Zr346   2.377       .  S
O340        H375   0.964       .  S
O341       Zr344   2.409       .  S
O341       Zr361   2.390       .  S
O341        H378   0.964       .  S
O342       Zr345   2.387       .  S
O342       Zr361   2.388       .  S
Zr343       O368   2.441       .  S
Zr343       O362   2.435       .  S
Zr343       O370   2.425       .  S
Zr343       O358   2.414       .  S
Zr343       O349   2.388   1_545  S
Zr343       O350   2.405       .  S
Zr343       O351   2.377       .  S
Zr343       O352   2.389       .  S
Zr344       O363   2.436       .  S
Zr344       O356   2.432   1_545  S
Zr344       O357   2.447       .  S
Zr344       O350   2.399       .  S
Zr344       O351   2.380       .  S
Zr345       O347   2.435       .  S
Zr345       O369   2.437   1_545  S
Zr345       O371   2.430       .  S
Zr345       O349   2.382   1_545  S
Zr345       O352   2.385       .  S
Zr346       O372   2.436       .  S
Zr346       O373   2.435       .  S
Zr346       O348   2.432       .  S
Zr346       O349   2.382       .  S
Zr346       O350   2.391   1_565  S
O347        H384   0.990       .  S
O348        H379   0.990       .  S
O348        H393   0.989       .  S
O350        H376   0.966   1_545  S
O351       Zr361   2.376       .  S
O352       Zr361   2.384       .  S
O352        H377   0.966       .  S
C353       C2333   1.479       .  S
C354       C2368   1.481       .  S
C355       C2480   1.492       .  S
O356        H392   0.989       .  S
O357        C359   1.287       .  A
O358        C359   1.280       .  A
C359       C2753   1.494       .  S
O360       Zr361   2.436       .  S
O360        H389   0.990       .  S
Zr361       O364   2.435       .  S
Zr361       O365   2.438       .  S
Zr361       O366   2.394       .  S
O362        C367   1.283       .  A
O363        H380   0.990       .  S
O363        H395   0.990       .  S
O364        H381   0.989       .  S
O365        H385   0.990       .  S
O365        H394   0.990       .  S
O366        C367   1.278       .  A
C367       C2536   1.474       .  S
O368        H387   0.989       .  S
O368        H391   0.991       .  S
O369        H383   0.990       .  S
O369        H390   0.989       .  S
O370        C374   1.282       .  A
O371        C374   1.284       .  A
O372        H382   0.990       .  S
O373        H386   0.990       .  S
C374       C2445   1.492       .  S
Zr397       O398   2.443       .  S
Zr397       O399   2.454       .  S
Zr397       O400   2.456       .  S
Zr397       O403   2.418       .  S
Zr397       O405   2.376       .  S
Zr397       O406   2.383       .  S
Zr397       O407   2.416       .  S
Zr397       O408   2.408       .  S
O398        H454   0.990       .  S
O398        H462   0.989       .  S
O399        C419   1.284       .  A
O400        C421   1.287       .  A
O401       Zr411   2.431       .  S
O401        C420   1.284       .  A
O402       Zr410   2.419       .  S
O402        C421   1.281       .  A
O403        C420   1.282       .  A
O404       Zr412   2.391       .  S
O404        C419   1.275       .  A
O405       Zr410   2.397       .  S
O405       Zr412   2.388       .  S
O406       Zr411   2.392       .  S
O406       Zr412   2.378       .  S
O406        H441   0.963       .  S
O407       Zr410   2.398       .  S
O407       Zr427   2.399       .  S
O407        H444   0.964       .  S
O408       Zr411   2.387       .  S
O408       Zr427   2.388       .  S
Zr409       O434   2.441       .  S
Zr409       O428   2.436       .  S
Zr409       O436   2.435       .  S
Zr409       O424   2.443       .  S
Zr409       O415   2.393       .  S
Zr409       O416   2.406       .  S
Zr409       O417   2.377       .  S
Zr409       O418   2.386       .  S
Zr410       O429   2.438       .  S
Zr410       O422   2.433       .  S
Zr410       O423   2.407       .  S
Zr410       O416   2.400       .  S
Zr410       O417   2.393       .  S
Zr411       O413   2.435       .  S
Zr411       O435   2.436       .  S
Zr411       O437   2.427       .  S
Zr411       O415   2.389       .  S
Zr411       O418   2.396       .  S
Zr412       O438   2.436       .  S
Zr412       O439   2.435       .  S
Zr412       O414   2.437       .  S
Zr412       O415   2.381       .  S
Zr412       O416   2.381       .  S
O413        H450   0.990       .  S
O414        H445   0.990       .  S
O414        H459   0.990       .  S
O416        H442   0.965       .  S
O417       Zr427   2.377       .  S
O418       Zr427   2.379       .  S
O418        H443   0.966       .  S
C419       C2193   1.472       .  S
C420       C2305   1.487       .  S
C421       C2249   1.489       .  S
O422        H458   0.990       .  S
O423        C425   1.279       .  A
O424        C425   1.285       .  A
C425       C2396   1.471       .  S
O426       Zr427   2.439       .  S
O426        H455   0.990       .  S
Zr427       O430   2.436       .  S
Zr427       O431   2.440       .  S
Zr427       O432   2.424       .  S
O428        C433   1.285       .  A
O429        H446   0.990       .  S
O429        H461   0.990       .  S
O430        H447   0.990       .  S
O431        H451   0.989       .  S
O431        H460   0.990       .  S
O432        C433   1.283       .  A
C433       C2228   1.496       .  S
O434        H453   0.991       .  S
O434        H457   0.990       .  S
O435        H449   0.990       .  S
O435        H456   0.989       .  S
O436        C440   1.285       .  A
O437        C440   1.285       .  A
O438        H448   0.990       .  S
O439        H452   0.990       .  S
C440       C2284   1.488   1_556  S
Zr463       O464   2.443       .  S
Zr463       O465   2.456       .  S
Zr463       O466   2.444       .  S
Zr463       O469   2.418       .  S
Zr463       O471   2.383       .  S
Zr463       O472   2.381       .  S
Zr463       O473   2.412       .  S
Zr463       O474   2.406       .  S
O464        H520   0.990       .  S
O464        H528   0.990       .  S
O465        C485   1.285       .  A
O466        C487   1.284       .  A
O467       Zr477   2.442       .  S
O467        C486   1.286       .  A
O468       Zr476   2.417       .  S
O468        C487   1.281       .  A
O469        C486   1.282       .  A
O470       Zr478   2.384       .  S
O470        C485   1.274       .  A
O471       Zr476   2.398       .  S
O471       Zr478   2.381       .  S
O472       Zr477   2.384       .  S
O472       Zr478   2.382       .  S
O472        H507   0.964       .  S
O473       Zr476   2.398       .  S
O473       Zr493   2.389       .  S
O473        H510   0.965       .  S
O474       Zr477   2.384       .  S
O474       Zr493   2.392       .  S
Zr475       O500   2.441       .  S
Zr475       O494   2.429       .  S
Zr475       O502   2.436       .  S
Zr475       O490   2.450       .  S
Zr475       O481   2.397       .  S
Zr475       O482   2.405       .  S
Zr475       O483   2.380       .  S
Zr475       O484   2.389       .  S
Zr476       O495   2.435       .  S
Zr476       O488   2.435       .  S
Zr476       O489   2.416       .  S
Zr476       O482   2.397       .  S
Zr476       O483   2.394       .  S
Zr477       O479   2.434       .  S
Zr477       O501   2.437       .  S
Zr477       O503   2.423       .  S
Zr477       O481   2.395       .  S
Zr477       O484   2.398       .  S
Zr478       O504   2.436       .  S
Zr478       O505   2.436       .  S
Zr478       O480   2.438       .  S
Zr478       O481   2.381       .  S
Zr478       O482   2.375       .  S
O479        H516   0.990       .  S
O480        H511   0.990       .  S
O480        H525   0.990       .  S
O482        H508   0.964       .  S
O483       Zr493   2.383       .  S
O484       Zr493   2.382       .  S
O484        H509   0.967       .  S
C485       C2109   1.470       .  S
C486       C2165   1.493       .  S
C487       C2277   1.478       .  S
O488        H524   0.990       .  S
O489        C491   1.281       .  A
O490        C491   1.287       .  A
C491       C2340   1.485       .  S
O492       Zr493   2.440       .  S
O492        H521   0.990       .  S
Zr493       O496   2.438       .  S
Zr493       O497   2.439       .  S
Zr493       O498   2.417       .  S
O494        C499   1.282       .  A
O495        H512   0.990       .  S
O495        H527   0.990       .  S
O496        H513   0.990       .  S
O497        H517   0.990       .  S
O497        H526   0.989       .  S
O498        C499   1.280       .  A
C499       C2144   1.481       .  S
O500        H519   0.989       .  S
O500        H523   0.990       .  S
O501        H515   0.990       .  S
O501        H522   0.990       .  S
O502        C506   1.285       .  A
O503        C506   1.282       .  A
O504        H514   0.990       .  S
O505        H518   0.990       .  S
C506       C2256   1.478       .  S
Zr529       O530   2.444   1_556  S
Zr529       O531   2.440       .  S
Zr529       O532   2.439   1_556  S
Zr529       O535   2.401       .  S
Zr529       O537   2.380       .  S
Zr529       O538   2.384       .  S
Zr529       O539   2.405   1_556  S
Zr529       O540   2.407       .  S
O530        H586   0.991       .  S
O530        H594   0.991       .  S
O531        C551   1.283       .  A
O532        C553   1.282       .  A
O533       Zr543   2.447       .  S
O533        C552   1.286       .  A
O534       Zr542   2.434   1_554  S
O534        C553   1.285       .  A
O535        C552   1.278       .  A
O536       Zr544   2.398       .  S
O536        C551   1.277       .  A
O537       Zr542   2.395       .  S
O537       Zr544   2.386       .  S
O538       Zr543   2.388       .  S
O538       Zr544   2.375       .  S
O538        H573   0.966       .  S
O539       Zr542   2.403   1_554  S
O539       Zr559   2.390   1_554  S
O539        H576   0.964       .  S
O540       Zr543   2.388       .  S
O540       Zr559   2.393       .  S
Zr541       O566   2.442       .  S
Zr541       O560   2.443       .  S
Zr541       O568   2.452       .  S
Zr541       O556   2.434       .  S
Zr541       O547   2.399       .  S
Zr541       O548   2.414       .  S
Zr541       O549   2.378       .  S
Zr541       O550   2.390       .  S
Zr542       O561   2.434   1_556  S
Zr542       O554   2.433   1_556  S
Zr542       O555   2.420       .  S
Zr542       O548   2.400       .  S
Zr542       O549   2.393       .  S
Zr543       O545   2.433       .  S
Zr543       O567   2.438       .  S
Zr543       O569   2.425       .  S
Zr543       O547   2.394       .  S
Zr543       O550   2.403       .  S
Zr544       O570   2.436       .  S
Zr544       O571   2.437       .  S
Zr544       O546   2.436       .  S
Zr544       O547   2.382       .  S
Zr544       O548   2.380       .  S
O545        H582   0.990       .  S
O546        H577   0.990   1_565  S
O546        H591   0.990       .  S
O548        H574   0.965       .  S
O549       Zr559   2.374       .  S
O550       Zr559   2.384       .  S
O550        H575   0.965       .  S
C551       C1997   1.470   1_565  S
C552       C2081   1.490       .  S
C553       C2053   1.490       .  S
O554        H590   0.990       .  S
O555        C557   1.283       .  A
O556        C557   1.284       .  A
C557       C2424   1.478       .  S
O558       Zr559   2.435       .  S
O558        H587   0.990   1_556  S
Zr559       O562   2.435   1_556  S
Zr559       O563   2.438       .  S
Zr559       O564   2.412       .  S
O560        C565   1.284       .  A
O561        H578   0.990       .  S
O561        H593   0.989       .  S
O562        H579   0.990       .  S
O563        H583   0.990       .  S
O563        H592   0.990       .  S
O564        C565   1.280       .  A
C565       C2221   1.487       .  S
O566        H585   0.989       .  S
O566        H589   0.990       .  S
O567        H581   0.990       .  S
O567        H588   0.990       .  S
O568        C572   1.286       .  A
O569        C572   1.283       .  A
O570        H580   0.990   1_565  S
O571        H584   0.990       .  S
C572       C2032   1.491       .  S
Zr595       O596   2.442       .  S
Zr595       O597   2.429       .  S
Zr595       O598   2.440       .  S
Zr595       O601   2.408       .  S
Zr595       O603   2.396       .  S
Zr595       O604   2.407       .  S
Zr595       O605   2.414       .  S
Zr595       O606   2.424       .  S
O596        H652   0.990       .  S
O596        H660   0.989       .  S
O597        C617   1.279       .  A
O598        C619   1.285       .  A
O599       Zr609   2.415       .  S
O599        C618   1.282       .  A
O600       Zr608   2.432       .  S
O600        C619   1.284       .  A
O601        C618   1.280       .  A
O602       Zr610   2.414       .  S
O602        C617   1.280       .  A
O603       Zr608   2.436       .  S
O603       Zr610   2.361       .  S
O604       Zr609   2.415       .  S
O604       Zr610   2.350       .  S
O604        H639   0.962       .  S
O605       Zr608   2.421       .  S
O605       Zr625   2.388       .  S
O605        H642   0.964       .  S
O606       Zr609   2.415       .  S
O606       Zr625   2.403       .  S
Zr607       O632   2.443       .  S
Zr607       O626   2.431       .  S
Zr607       O634   2.423       .  S
Zr607       O622   2.417       .  S
Zr607       O613   2.444       .  S
Zr607       O614   2.445       .  S
Zr607       O615   2.410       .  S
Zr607       O616   2.393       .  S
Zr608       O627   2.437       .  S
Zr608       O620   2.432       .  S
Zr608       O621   2.435       .  S
Zr608       O614   2.433       .  S
Zr608       O615   2.426       .  S
Zr609       O611   2.434       .  S
Zr609       O633   2.438       .  S
Zr609       O635   2.432       .  S
Zr609       O613   2.407       .  S
Zr609       O616   2.403       .  S
Zr610       O636   2.335       .  S
Zr610       O637   2.433       .  S
Zr610       O612   2.434       .  S
Zr610       O613   2.369       .  S
Zr610       O614   2.377       .  S
O611        H648   0.990       .  S
O612        H643   0.990   1_565  S
O612        H657   0.990       .  S
O614        H640   0.960       .  S
O615       Zr625   2.388       .  S
O616       Zr625   2.386       .  S
O616        H641   0.968       .  S
C617       C1948   1.477   1_565  S
C618       C1976   1.471       .  S
C619       C2025   1.483       .  S
O620        H656   0.990       .  S
O621        C623   1.286       .  A
O622        C623   1.280       .  A
C623       C2361   1.474       .  S
O624       Zr625   2.436       .  S
O624        H653   0.990       .  S
Zr625       O628   2.436       .  S
Zr625       O629   2.439       .  S
Zr625       O630   2.402       .  S
O626        C631   1.281       .  A
O627        H644   0.990       .  S
O627        H659   0.990       .  S
O628        H645   0.990       .  S
O629        H649   0.990       .  S
O629        H658   0.990       .  S
O630        C631   1.278       .  A
C631       C2137   1.477       .  S
O632        H651   0.991       .  S
O632        H655   0.990       .  S
O633        H647   0.990       .  S
O633        H654   0.990       .  S
O634        C638   1.282       .  A
O635        C638   1.284       .  A
O636        H646   0.963       .  S
O637        H650   0.990       .  S
C638       C2060   1.478       .  S
Zr661       O662   2.443       .  S
Zr661       O663   2.436       .  S
Zr661       O664   2.442       .  S
Zr661       O667   2.424       .  S
Zr661       O669   2.384   1_554  S
Zr661       O670   2.385   1_554  S
Zr661       O671   2.406       .  S
Zr661       O672   2.402   1_554  S
O662        H718   0.990       .  S
O662        H726   0.990       .  S
O663        C683   1.281   1_554  A
O664        C685   1.284       .  A
O665       Zr675   2.450       .  S
O665        C684   1.289       .  A
O666       Zr674   2.429       .  S
O666        C685   1.283       .  A
O667        C684   1.283   1_554  A
O668       Zr676   2.406       .  S
O668        C683   1.278       .  A
O669       Zr674   2.404   1_556  S
O669       Zr676   2.379       .  S
O670       Zr675   2.389       .  S
O670       Zr676   2.377       .  S
O670        H705   0.965       .  S
O671       Zr674   2.407       .  S
O671       Zr691   2.386   1_554  S
O671        H708   0.965       .  S
O672       Zr675   2.391       .  S
O672       Zr691   2.386       .  S
Zr673       O698   2.442       .  S
Zr673       O692   2.432       .  S
Zr673       O700   2.443       .  S
Zr673       O688   2.439       .  S
Zr673       O679   2.398       .  S
Zr673       O680   2.411       .  S
Zr673       O681   2.376       .  S
Zr673       O682   2.383       .  S
Zr674       O693   2.436       .  S
Zr674       O686   2.435       .  S
Zr674       O687   2.439   1_554  S
Zr674       O680   2.403   1_554  S
Zr674       O681   2.397   1_554  S
Zr675       O677   2.432       .  S
Zr675       O699   2.438       .  S
Zr675       O701   2.437       .  S
Zr675       O679   2.398       .  S
Zr675       O682   2.401       .  S
Zr676       O702   2.435       .  S
Zr676       O703   2.433       .  S
Zr676       O678   2.438       .  S
Zr676       O679   2.392       .  S
Zr676       O680   2.384       .  S
O677        H714   0.989       .  S
O678        H709   0.990   1_655  S
O678        H723   0.990       .  S
O680        H706   0.965       .  S
O681       Zr691   2.382       .  S
O682       Zr691   2.383       .  S
O682        H707   0.966       .  S
C683       C2088   1.468   1_656  S
C684       C2837   1.495       .  S
C685       C1913   1.483       .  S
O686        H722   0.990       .  S
O687        C689   1.285       .  A
O688        C689   1.286       .  A
C689       C1829   1.491       .  S
O690       Zr691   2.436   1_554  S
O690        H719   0.990       .  S
Zr691       O694   2.434   1_556  S
Zr691       O695   2.438       .  S
Zr691       O696   2.409       .  S
O692        C697   1.282       .  A
O693        H710   0.990       .  S
O693        H725   0.990       .  S
O694        H711   0.990       .  S
O695        H715   0.990       .  S
O695        H724   0.989       .  S
O696        C697   1.278       .  A
C697       C1864   1.477       .  S
O698        H717   0.989       .  S
O698        H721   0.990       .  S
O699        H713   0.990       .  S
O699        H720   0.990       .  S
O700        C704   1.287       .  A
O701        C704   1.285       .  A
O702        H712   0.990       .  S
O703        H716   0.989       .  S
C704       C1885   1.494       .  S
Zr727       O728   2.444       .  S
Zr727       O729   2.436       .  S
Zr727       O730   2.443       .  S
Zr727       O733   2.407       .  S
Zr727       O735   2.378       .  S
Zr727       O736   2.385       .  S
Zr727       O737   2.400       .  S
Zr727       O738   2.403       .  S
O728        H784   0.991       .  S
O728        H792   0.991       .  S
O729        C749   1.282       .  A
O730        C751   1.283       .  A
O731       Zr741   2.457       .  S
O731        C750   1.289       .  A
O732       Zr740   2.436       .  S
O732        C751   1.285       .  A
O733        C750   1.280       .  A
O734       Zr742   2.380       .  S
O734        C749   1.274       .  A
O735       Zr740   2.395       .  S
O735       Zr742   2.378       .  S
O736       Zr741   2.392       .  S
O736       Zr742   2.382       .  S
O736        H771   0.966       .  S
O737       Zr740   2.398       .  S
O737       Zr757   2.385       .  S
O737        H774   0.965       .  S
O738       Zr741   2.384       .  S
O738       Zr757   2.383       .  S
Zr739       O764   2.441       .  S
Zr739       O758   2.431       .  S
Zr739       O766   2.452       .  S
Zr739       O754   2.462       .  S
Zr739       O745   2.402       .  S
Zr739       O746   2.407       .  S
Zr739       O747   2.383       .  S
Zr739       O748   2.396       .  S
Zr740       O759   2.437       .  S
Zr740       O752   2.433       .  S
Zr740       O753   2.425       .  S
Zr740       O746   2.408       .  S
Zr740       O747   2.391       .  S
Zr741       O743   2.436       .  S
Zr741       O765   2.437       .  S
Zr741       O767   2.443       .  S
Zr741       O745   2.397       .  S
Zr741       O748   2.399       .  S
Zr742       O768   2.436       .  S
Zr742       O769   2.436       .  S
Zr742       O744   2.437       .  S
Zr742       O745   2.381       .  S
Zr742       O746   2.376       .  S
O743        H780   0.990       .  S
O744        H775   0.990   1_655  S
O744        H789   0.990       .  S
O746        H772   0.965       .  S
O747       Zr757   2.379       .  S
O748       Zr757   2.387       .  S
O748        H773   0.966       .  S
C749       C1969   1.461       .  S
C750       C2725   1.499       .  S
C751       C1892   1.488       .  S
O752        H788   0.990       .  S
O753        C755   1.283       .  A
O754        C755   1.289       .  A
C755       C1780   1.486       .  S
O756       Zr757   2.435       .  S
O756        H785   0.990       .  S
Zr757       O760   2.434       .  S
Zr757       O761   2.439       .  S
Zr757       O762   2.395       .  S
O758        C763   1.282       .  A
O759        H776   0.990       .  S
O759        H791   0.989       .  S
O760        H777   0.990       .  S
O761        H781   0.990       .  S
O761        H790   0.989       .  S
O762        C763   1.276       .  A
C763       C1801   1.468       .  S
O764        H783   0.990       .  S
O764        H787   0.990       .  S
O765        H779   0.988       .  S
O765        H786   0.990       .  S
O766        C770   1.287       .  A
O767        C770   1.287       .  A
O768        H778   0.990       .  S
O769        H782   0.990       .  S
C770       C1920   1.496       .  S
Zr793       O794   2.442       .  S
Zr793       O795   2.442       .  S
Zr793       O796   2.444       .  S
Zr793       O799   2.422       .  S
Zr793       O801   2.383       .  S
Zr793       O802   2.381       .  S
Zr793       O803   2.411       .  S
Zr793       O804   2.403       .  S
O794        H850   0.990       .  S
O794        H858   0.988       .  S
O795        C815   1.282       .  A
O796        C817   1.285       .  A
O797       Zr807   2.444       .  S
O797        C816   1.286       .  A
O798       Zr806   2.439       .  S
O798        C817   1.285       .  A
O799        C816   1.281       .  A
O800       Zr808   2.397       .  S
O800        C815   1.277       .  A
O801       Zr806   2.406       .  S
O801       Zr808   2.384       .  S
O802       Zr807   2.391       .  S
O802       Zr808   2.386       .  S
O802        H837   0.964       .  S
O803       Zr806   2.408       .  S
O803       Zr823   2.388       .  S
O803        H840   0.961       .  S
O804       Zr807   2.381       .  S
O804       Zr823   2.389       .  S
Zr805       O830   2.441       .  S
Zr805       O824   2.436       .  S
Zr805       O832   2.457       .  S
Zr805       O820   2.432       .  S
Zr805       O811   2.389       .  S
Zr805       O812   2.413       .  S
Zr805       O813   2.379       .  S
Zr805       O814   2.388       .  S
Zr806       O825   2.437       .  S
Zr806       O818   2.433       .  S
Zr806       O819   2.447       .  S
Zr806       O812   2.403       .  S
Zr806       O813   2.392       .  S
Zr807       O809   2.436       .  S
Zr807       O831   2.436       .  S
Zr807       O833   2.421       .  S
Zr807       O811   2.387       .  S
Zr807       O814   2.400       .  S
Zr808       O834   2.434       .  S
Zr808       O835   2.436       .  S
Zr808       O810   2.439       .  S
Zr808       O811   2.380       .  S
Zr808       O812   2.378       .  S
O809        H846   0.990       .  S
O810        H841   0.990       .  S
O810        H855   0.990       .  S
O812        H838   0.963       .  S
O813       Zr823   2.377       .  S
O814       Zr823   2.389       .  S
O814        H839   0.967       .  S
C815       C2697   1.469       .  S
C816       C2200   1.489       .  S
C817       C1717   1.492       .  S
O818        H854   0.990       .  S
O819        C821   1.287       .  A
O820        C821   1.284       .  A
C821       C1689   1.485       .  S
O822       Zr823   2.435       .  S
O822        H851   0.990       .  S
Zr823       O826   2.436       .  S
Zr823       O827   2.441       .  S
Zr823       O828   2.406       .  S
O824        C829   1.283       .  A
O825        H842   0.990       .  S
O825        H857   0.990       .  S
O826        H843   0.990       .  S
O827        H847   0.990       .  S
O827        H856   0.989       .  S
O828        C829   1.278       .  A
C829       C1857   1.479       .  S
O830        H849   0.990       .  S
O830        H853   0.990       .  S
O831        H845   0.990       .  S
O831        H852   0.989       .  S
O832        C836   1.289       .  A
O833        C836   1.283       .  A
O834        H844   0.990       .  S
O835        H848   0.991       .  S
C836       C1745   1.491   1_556  S
Zr859       O860   2.442       .  S
Zr859       O861   2.433       .  S
Zr859       O862   2.445       .  S
Zr859       O865   2.422       .  S
Zr859       O867   2.379       .  S
Zr859       O868   2.384       .  S
Zr859       O869   2.405       .  S
Zr859       O870   2.400       .  S
O860        H916   0.990       .  S
O860        H924   0.989       .  S
O861        C881   1.280       .  A
O862        C883   1.285       .  A
O863       Zr873   2.437       .  S
O863        C882   1.285       .  A
O864       Zr872   2.424       .  S
O864        C883   1.282       .  A
O865        C882   1.283       .  A
O866       Zr874   2.399       .  S
O866        C881   1.277       .  A
O867       Zr872   2.401       .  S
O867       Zr874   2.378       .  S
O868       Zr873   2.392       .  S
O868       Zr874   2.381       .  S
O868        H903   0.966       .  S
O869       Zr872   2.401       .  S
O869       Zr889   2.394       .  S
O869        H906   0.965       .  S
O870       Zr873   2.389       .  S
O870       Zr889   2.388       .  S
Zr871       O896   2.441       .  S
Zr871       O890   2.428       .  S
Zr871       O898   2.432       .  S
Zr871       O886   2.440       .  S
Zr871       O877   2.399       .  S
Zr871       O878   2.405       .  S
Zr871       O879   2.377       .  S
Zr871       O880   2.385       .  S
Zr872       O891   2.436       .  S
Zr872       O884   2.434       .  S
Zr872       O885   2.424       .  S
Zr872       O878   2.403       .  S
Zr872       O879   2.391       .  S
Zr873       O875   2.434       .  S
Zr873       O897   2.436       .  S
Zr873       O899   2.431       .  S
Zr873       O877   2.394       .  S
Zr873       O880   2.396       .  S
Zr874       O900   2.435       .  S
Zr874       O901   2.436       .  S
Zr874       O876   2.439       .  S
Zr874       O877   2.389       .  S
Zr874       O878   2.377       .  S
O875        H912   0.990       .  S
O876        H907   0.990       .  S
O876        H921   0.990       .  S
O878        H904   0.964       .  S
O879       Zr889   2.378       .  S
O880       Zr889   2.384       .  S
O880        H905   0.966       .  S
C881       C2564   1.467       .  S
C882       C2116   1.488       .  S
C883       C1752   1.485       .  S
O884        H920   0.990       .  S
O885        C887   1.283       .  A
O886        C887   1.285       .  A
C887       C1661   1.482       .  S
O888       Zr889   2.435       .  S
O888        H917   0.990       .  S
Zr889       O892   2.437       .  S
Zr889       O893   2.438       .  S
Zr889       O894   2.412       .  S
O890        C895   1.282       .  A
O891        H908   0.990       .  S
O891        H923   0.990       .  S
O892        H909   0.990       .  S
O893        H913   0.990       .  S
O893        H922   0.990       .  S
O894        C895   1.279       .  A
C895       C1808   1.483       .  S
O896        H915   0.990       .  S
O896        H919   0.990       .  S
O897        H911   0.989       .  S
O897        H918   0.990       .  S
O898        C902   1.284       .  A
O899        C902   1.284       .  A
O900        H910   0.990       .  S
O901        H914   0.990       .  S
C902       C1724   1.485       .  S
Zr925       O926   2.442       .  S
Zr925       O927   2.429       .  S
Zr925       O928   2.450       .  S
Zr925       O931   2.417   1_554  S
Zr925       O933   2.378   1_554  S
Zr925       O934   2.385   1_554  S
Zr925       O935   2.402       .  S
Zr925       O936   2.406   1_554  S
O926        H982   0.990       .  S
O926        H990   0.990       .  S
O927        C947   1.280   1_554  A
O928        C949   1.286       .  A
O929       Zr939   2.440       .  S
O929        C948   1.287       .  A
O930       Zr938   2.435       .  S
O930        C949   1.284       .  A
O931        C948   1.281       .  A
O932       Zr940   2.399       .  S
O932        C947   1.276       .  A
O933       Zr938   2.399   1_556  S
O933       Zr940   2.384       .  S
O934       Zr939   2.391       .  S
O934       Zr940   2.373       .  S
O934        H969   0.967       .  S
O935       Zr938   2.400       .  S
O935       Zr955   2.376   1_554  S
O935        H972   0.963       .  S
O936       Zr939   2.391       .  S
O936       Zr955   2.384       .  S
Zr937       O962   2.443       .  S
Zr937       O956   2.451       .  S
Zr937       O964   2.442       .  S
Zr937       O952   2.439       .  S
Zr937       O943   2.403       .  S
Zr937       O944   2.414       .  S
Zr937       O945   2.383       .  S
Zr937       O946   2.388       .  S
Zr938       O957   2.439       .  S
Zr938       O950   2.436       .  S
Zr938       O951   2.419   1_554  S
Zr938       O944   2.405   1_554  S
Zr938       O945   2.399   1_554  S
Zr939       O941   2.434       .  S
Zr939       O963   2.437       .  S
Zr939       O965   2.445       .  S
Zr939       O943   2.389       .  S
Zr939       O946   2.395       .  S
Zr940       O966   2.435       .  S
Zr940       O967   2.436       .  S
Zr940       O942   2.438       .  S
Zr940       O943   2.387       .  S
Zr940       O944   2.387       .  S
O941        H978   0.989       .  S
O942        H973   0.990   1_455  S
O942        H987   0.990       .  S
O944        H970   0.964       .  S
O945       Zr955   2.387       .  S
O946       Zr955   2.383       .  S
O946        H971   0.966       .  S
C947       C2984   1.464       .  S
C948       C2004   1.485       .  S
C949       C1633   1.488       .  S
O950        H986   0.990       .  S
O951        C953   1.281       .  A
O952        C953   1.283       .  A
C953       C1556   1.470       .  S
O954       Zr955   2.436   1_554  S
O954        H983   0.990       .  S
Zr955       O958   2.436   1_556  S
Zr955       O959   2.440       .  S
Zr955       O960   2.388       .  S
O956        C961   1.286       .  A
O957        H974   0.990       .  S
O957        H989   0.990       .  S
O958        H975   0.990       .  S
O959        H979   0.990       .  S
O959        H988   0.990       .  S
O960        C961   1.275       .  A
C961       C1584   1.478       .  S
O962        H981   0.991       .  S
O962        H985   0.990       .  S
O963        H977   0.989       .  S
O963        H984   0.990       .  S
O964        C968   1.285       .  A
O965        C968   1.287       .  A
O966        H976   0.990       .  S
O967        H980   0.990       .  S
C968       C1605   1.495       .  S
Zr991       O992   2.444       .  S
Zr991       O993   2.439       .  S
Zr991       O994   2.441       .  S
Zr991       O997   2.411       .  S
Zr991       O999   2.378       .  S
Zr991      O1000   2.384       .  S
Zr991      O1001   2.406       .  S
Zr991      O1002   2.408       .  S
O992       H1048   0.990       .  S
O992       H1056   0.990       .  S
O993       C1013   1.281       .  A
O994       C1015   1.284       .  A
O995      Zr1005   2.440       .  S
O995       C1014   1.286       .  A
O996      Zr1004   2.448       .  S
O996       C1015   1.286       .  A
O997       C1014   1.279       .  A
O998      Zr1006   2.392       .  S
O998       C1013   1.276       .  A
O999      Zr1004   2.398       .  S
O999      Zr1006   2.387       .  S
O1000     Zr1005   2.396       .  S
O1000     Zr1006   2.382       .  S
O1000      H1035   0.966       .  S
O1001     Zr1004   2.403       .  S
O1001     Zr1021   2.389       .  S
O1001      H1038   0.965       .  S
O1002     Zr1005   2.388       .  S
O1002     Zr1021   2.394       .  S
Zr1003     O1028   2.442       .  S
Zr1003     O1022   2.451       .  S
Zr1003     O1030   2.439       .  S
Zr1003     O1018   2.422       .  S
Zr1003     O1009   2.395       .  S
Zr1003     O1010   2.415       .  S
Zr1003     O1011   2.380       .  S
Zr1003     O1012   2.384       .  S
Zr1004     O1023   2.434       .  S
Zr1004     O1016   2.433       .  S
Zr1004     O1017   2.438       .  S
Zr1004     O1010   2.404       .  S
Zr1004     O1011   2.405       .  S
Zr1005     O1007   2.435       .  S
Zr1005     O1029   2.438       .  S
Zr1005     O1031   2.439       .  S
Zr1005     O1009   2.384       .  S
Zr1005     O1012   2.400       .  S
Zr1006     O1032   2.434       .  S
Zr1006     O1033   2.436       .  S
Zr1006     O1008   2.437       .  S
Zr1006     O1009   2.380       .  S
Zr1006     O1010   2.381       .  S
O1007      H1044   0.990       .  S
O1008      H1039   0.990       .  S
O1008      H1053   0.990       .  S
O1010      H1036   0.964       .  S
O1011     Zr1021   2.379       .  S
O1012     Zr1021   2.382       .  S
O1012      H1037   0.967       .  S
C1013      C2816   1.467       .  S
C1014      C1941   1.478       .  S
C1015      C1612   1.488       .  S
O1016      H1052   0.989       .  S
O1017      C1019   1.285       .  A
O1018      C1019   1.281       .  A
C1019      C1500   1.480       .  S
O1020     Zr1021   2.438       .  S
O1020      H1049   0.990       .  S
Zr1021     O1024   2.436       .  S
Zr1021     O1025   2.441       .  S
Zr1021     O1026   2.413       .  S
O1022      C1027   1.285       .  A
O1023      H1040   0.988       .  S
O1023      H1055   0.990       .  S
O1024      H1041   0.990       .  S
O1025      H1045   0.990       .  S
O1025      H1054   0.990       .  S
O1026      C1027   1.279       .  A
C1027      C1521   1.485       .  S
O1028      H1047   0.991       .  S
O1028      H1051   0.990       .  S
O1029      H1043   0.990       .  S
O1029      H1050   0.990       .  S
O1030      C1034   1.285       .  A
O1031      C1034   1.286       .  A
O1032      H1042   0.990       .  S
O1033      H1046   0.990       .  S
C1034      C1640   1.494       .  S
Zr1057     O1058   2.441       .  S
Zr1057     O1059   2.449       .  S
Zr1057     O1060   2.450       .  S
Zr1057     O1063   2.432       .  S
Zr1057     O1065   2.377       .  S
Zr1057     O1066   2.386       .  S
Zr1057     O1067   2.412       .  S
Zr1057     O1068   2.408       .  S
O1058      H1114   0.990       .  S
O1058      H1122   0.989       .  S
O1059      C1079   1.285       .  A
O1060      C1081   1.287       .  A
O1061     Zr1071   2.421       .  S
O1061      C1080   1.282       .  A
O1062     Zr1070   2.428       .  S
O1062      C1081   1.283       .  A
O1063      C1080   1.283       .  A
O1064     Zr1072   2.397       .  S
O1064      C1079   1.278       .  A
O1065     Zr1070   2.400       .  S
O1065     Zr1072   2.384       .  S
O1066     Zr1071   2.403       .  S
O1066     Zr1072   2.372       .  S
O1066      H1101   0.966       .  S
O1067     Zr1070   2.407       .  S
O1067     Zr1087   2.388       .  S
O1067      H1104   0.965       .  S
O1068     Zr1071   2.388       .  S
O1068     Zr1087   2.386       .  S
Zr1069     O1094   2.443       .  S
Zr1069     O1088   2.432       .  S
Zr1069     O1096   2.442       .  S
Zr1069     O1084   2.430       .  S
Zr1069     O1075   2.399       .  S
Zr1069     O1076   2.408       .  S
Zr1069     O1077   2.377       .  S
Zr1069     O1078   2.389       .  S
Zr1070     O1089   2.437       .  S
Zr1070     O1082   2.430       .  S
Zr1070     O1083   2.443       .  S
Zr1070     O1076   2.401       .  S
Zr1070     O1077   2.385       .  S
Zr1071     O1073   2.436       .  S
Zr1071     O1095   2.439       .  S
Zr1071     O1097   2.426       .  S
Zr1071     O1075   2.390       .  S
Zr1071     O1078   2.399       .  S
Zr1072     O1098   2.435       .  S
Zr1072     O1099   2.434       .  S
Zr1072     O1074   2.434       .  S
Zr1072     O1075   2.383       .  S
Zr1072     O1076   2.381       .  S
O1073      H1110   0.990       .  S
O1074      H1105   0.990       .  S
O1074      H1119   0.990       .  S
O1076      H1102   0.964       .  S
O1077     Zr1087   2.380       .  S
O1078     Zr1087   2.384       .  S
O1078      H1103   0.967       .  S
C1079      C2312   1.493       .  S
C1080      C2592   1.473       .  S
C1081      C1437   1.489       .  S
O1082      H1118   0.990       .  S
O1083      C1085   1.287       .  A
O1084      C1085   1.283       .  A
C1085      C1409   1.486       .  S
O1086     Zr1087   2.435       .  S
O1086      H1115   0.990       .  S
Zr1087     O1090   2.435       .  S
Zr1087     O1091   2.438       .  S
Zr1087     O1092   2.406       .  S
O1088      C1093   1.281       .  A
O1089      H1106   0.990       .  S
O1089      H1121   0.990       .  S
O1090      H1107   0.989       .  S
O1091      H1111   0.989       .  S
O1091      H1120   0.990       .  S
O1092      C1093   1.277       .  A
C1093      C1577   1.469       .  S
O1094      H1113   0.990       .  S
O1094      H1117   0.990       .  S
O1095      H1109   0.990       .  S
O1095      H1116   0.990       .  S
O1096      C1100   1.284       .  A
O1097      C1100   1.284       .  A
O1098      H1108   0.990       .  S
O1099      H1112   0.990       .  S
C1100      C1465   1.487   1_556  S
Zr1123     O1124   2.444       .  S
Zr1123     O1125   2.450       .  S
Zr1123     O1126   2.442       .  S
Zr1123     O1129   2.424       .  S
Zr1123     O1131   2.382       .  S
Zr1123     O1132   2.386       .  S
Zr1123     O1133   2.413       .  S
Zr1123     O1134   2.403       .  S
O1124      H1180   0.990       .  S
O1124      H1188   0.991       .  S
O1125      C1145   1.285       .  A
O1126      C1147   1.284       .  A
O1127     Zr1137   2.430       .  S
O1127      C1146   1.285       .  A
O1128     Zr1136   2.425       .  S
O1128      C1147   1.283       .  A
O1129      C1146   1.283       .  A
O1130     Zr1138   2.406       .  S
O1130      C1145   1.278       .  A
O1131     Zr1136   2.395       .  S
O1131     Zr1138   2.380       .  S
O1132     Zr1137   2.394       .  S
O1132     Zr1138   2.379       .  S
O1132      H1167   0.966       .  S
O1133     Zr1136   2.408       .  S
O1133     Zr1153   2.382       .  S
O1133      H1170   0.963       .  S
O1134     Zr1137   2.389       .  S
O1134     Zr1153   2.382       .  S
Zr1135     O1160   2.442       .  S
Zr1135     O1154   2.448       .  S
Zr1135     O1162   2.425       .  S
Zr1135     O1150   2.430       .  S
Zr1135     O1141   2.399       .  S
Zr1135     O1142   2.408       .  S
Zr1135     O1143   2.374       .  S
Zr1135     O1144   2.387       .  S
Zr1136     O1155   2.436       .  S
Zr1136     O1148   2.433       .  S
Zr1136     O1149   2.427       .  S
Zr1136     O1142   2.395       .  S
Zr1136     O1143   2.391       .  S
Zr1137     O1139   2.434       .  S
Zr1137     O1161   2.438       .  S
Zr1137     O1163   2.423       .  S
Zr1137     O1141   2.388       .  S
Zr1137     O1144   2.399       .  S
Zr1138     O1164   2.436       .  S
Zr1138     O1165   2.435       .  S
Zr1138     O1140   2.438       .  S
Zr1138     O1141   2.389       .  S
Zr1138     O1142   2.395       .  S
O1139      H1176   0.990       .  S
O1140      H1171   0.990       .  S
O1140      H1185   0.990       .  S
O1142      H1168   0.965       .  S
O1143     Zr1153   2.378       .  S
O1144     Zr1153   2.380       .  S
O1144      H1169   0.965       .  S
C1145      C2172   1.477       .  S
C1146      C2508   1.486       .  S
C1147      C1472   1.481       .  S
O1148      H1184   0.990       .  S
O1149      C1151   1.283       .  A
O1150      C1151   1.282       .  A
C1151      C1388   1.491       .  S
O1152     Zr1153   2.435       .  S
O1152      H1181   0.990       .  S
Zr1153     O1156   2.433       .  S
Zr1153     O1157   2.436       .  S
Zr1153     O1158   2.404       .  S
O1154      C1159   1.285       .  A
O1155      H1172   0.990       .  S
O1155      H1187   0.988       .  S
O1156      H1173   0.990       .  S
O1157      H1177   0.990       .  S
O1157      H1186   0.989       .  S
O1158      C1159   1.278       .  A
C1159      C1528   1.478       .  S
O1160      H1179   0.991       .  S
O1160      H1183   0.990       .  S
O1161      H1175   0.990       .  S
O1161      H1182   0.990       .  S
O1162      C1166   1.283       .  A
O1163      C1166   1.283       .  A
O1164      H1174   0.990       .  S
O1165      H1178   0.990       .  S
C1166      C1444   1.487       .  S
Zr1189     O1190   2.440       .  S
Zr1189     O1191   2.434       .  S
Zr1189     O1192   2.456   1_556  S
Zr1189     O1195   2.433       .  S
Zr1189     O1197   2.383   1_455  S
Zr1189     O1198   2.386       .  S
Zr1189     O1199   2.409       .  S
Zr1189     O1200   2.401       .  S
O1190      H1246   0.990       .  S
O1190      H1254   0.989       .  S
O1191      C1211   1.284       .  A
O1192      C1213   1.288       .  A
O1193     Zr1203   2.411       .  S
O1193      C1212   1.280       .  A
O1194     Zr1202   2.439   1_554  S
O1194      C1213   1.286   1_655  A
O1195      C1212   1.284       .  A
O1196     Zr1204   2.415   1_455  S
O1196      C1211   1.281       .  A
O1197     Zr1202   2.400       .  S
O1197     Zr1204   2.379       .  S
O1198     Zr1203   2.392       .  S
O1198     Zr1204   2.376   1_455  S
O1198      H1233   0.966       .  S
O1199     Zr1202   2.404   1_455  S
O1199     Zr1219   2.398       .  S
O1199      H1236   0.965       .  S
O1200     Zr1203   2.390       .  S
O1200     Zr1219   2.386       .  S
Zr1201     O1226   2.441       .  S
Zr1201     O1220   2.440       .  S
Zr1201     O1228   2.440       .  S
Zr1201     O1216   2.413       .  S
Zr1201     O1207   2.392       .  S
Zr1201     O1208   2.412       .  S
Zr1201     O1209   2.381       .  S
Zr1201     O1210   2.378   1_655  S
Zr1202     O1221   2.436       .  S
Zr1202     O1214   2.434       .  S
Zr1202     O1215   2.444       .  S
Zr1202     O1208   2.399       .  S
Zr1202     O1209   2.384       .  S
Zr1203     O1205   2.435       .  S
Zr1203     O1227   2.437       .  S
Zr1203     O1229   2.424       .  S
Zr1203     O1207   2.385   1_455  S
Zr1203     O1210   2.385       .  S
Zr1204     O1230   2.434       .  S
Zr1204     O1231   2.435       .  S
Zr1204     O1206   2.437       .  S
Zr1204     O1207   2.393       .  S
Zr1204     O1208   2.384       .  S
O1205      H1242   0.990       .  S
O1206      H1237   0.990       .  S
O1206      H1251   0.990       .  S
O1208      H1234   0.965       .  S
O1209     Zr1219   2.373   1_655  S
O1210     Zr1219   2.383       .  S
O1210      H1235   0.967       .  S
C1211      C1549   1.483       .  S
C1212      C1416   1.476       .  S
C1213      C1360   1.498       .  S
O1214      H1250   0.990       .  S
O1215      C1217   1.286       .  A
O1216      C1217   1.280       .  A
C1217      C1696   1.475       .  S
O1218     Zr1219   2.437       .  S
O1218      H1247   0.990       .  S
Zr1219     O1222   2.436       .  S
Zr1219     O1223   2.440       .  S
Zr1219     O1224   2.416       .  S
O1220      C1225   1.285       .  A
O1221      H1238   0.990   1_556  S
O1221      H1253   0.990   1_556  S
O1222      H1239   0.990       .  S
O1223      H1243   0.990       .  S
O1223      H1252   0.990       .  S
O1224      C1225   1.281   1_455  A
C1225      C1836   1.495       .  S
O1226      H1245   0.990       .  S
O1226      H1249   0.990       .  S
O1227      H1241   0.990       .  S
O1227      H1248   0.990       .  S
O1228      C1232   1.285   1_655  A
O1229      C1232   1.283       .  A
O1230      H1240   0.990       .  S
O1231      H1244   0.990       .  S
C1232      C1325   1.489       .  S
Zr1255     O1256   2.435       .  S
Zr1255     O1257   2.414       .  S
Zr1255     O1258   2.449       .  S
Zr1255     O1261   2.429       .  S
Zr1255     O1263   2.378   1_655  S
Zr1255     O1264   2.381       .  S
Zr1255     O1265   2.403       .  S
Zr1255     O1266   2.399       .  S
O1256      H1312   0.990       .  S
O1256      H1320   0.989       .  S
O1257      C1277   1.280       .  A
O1258      C1279   1.288   1_655  A
O1259     Zr1269   2.416       .  S
O1259      C1278   1.282       .  A
O1260     Zr1268   2.432       .  S
O1260      C1279   1.285       .  A
O1261      C1278   1.285       .  A
O1262     Zr1270   2.443       .  S
O1262      C1277   1.286   1_455  A
O1263     Zr1268   2.391       .  S
O1263     Zr1270   2.372       .  S
O1264     Zr1269   2.392       .  S
O1264     Zr1270   2.369   1_655  S
O1264      H1299   0.966       .  S
O1265     Zr1268   2.408   1_655  S
O1265     Zr1285   2.397       .  S
O1265      H1302   0.965       .  S
O1266     Zr1269   2.391       .  S
O1266     Zr1285   2.387       .  S
Zr1267     O1292   2.440       .  S
Zr1267     O1286   2.447       .  S
Zr1267     O1294   2.457       .  S
Zr1267     O1282   2.415       .  S
Zr1267     O1273   2.396       .  S
Zr1267     O1274   2.416       .  S
Zr1267     O1275   2.378       .  S
Zr1267     O1276   2.378   1_455  S
Zr1268     O1287   2.437       .  S
Zr1268     O1280   2.433       .  S
Zr1268     O1281   2.448       .  S
Zr1268     O1274   2.402       .  S
Zr1268     O1275   2.378       .  S
Zr1269     O1271   2.434       .  S
Zr1269     O1293   2.438       .  S
Zr1269     O1295   2.420       .  S
Zr1269     O1273   2.388   1_655  S
Zr1269     O1276   2.388       .  S
Zr1270     O1296   2.433       .  S
Zr1270     O1297   2.436       .  S
Zr1270     O1272   2.438       .  S
Zr1270     O1273   2.403       .  S
Zr1270     O1274   2.399       .  S
O1271      H1308   0.990       .  S
O1272      H1303   0.990       .  S
O1272      H1317   0.990       .  S
O1274      H1300   0.966       .  S
O1275     Zr1285   2.370   1_455  S
O1276     Zr1285   2.385       .  S
O1276      H1301   0.967       .  S
C1277      C1773   1.489       .  S
C1278      C1668   1.485       .  S
C1279      C1332   1.496       .  S
O1280      H1316   0.990       .  S
O1281      C1283   1.288       .  A
O1282      C1283   1.281       .  A
C1283      C1381   1.500       .  S
O1284     Zr1285   2.437       .  S
O1284      H1313   0.990       .  S
Zr1285     O1288   2.435       .  S
Zr1285     O1289   2.438       .  S
Zr1285     O1290   2.411   1_655  S
O1286      C1291   1.285       .  A
O1287      H1304   0.990       .  S
O1287      H1319   0.990       .  S
O1288      H1305   0.990   1_655  S
O1289      H1309   0.990       .  S
O1289      H1318   0.990       .  S
O1290      C1291   1.280       .  A
C1291      C1493   1.475       .  S
O1292      H1311   0.990       .  S
O1292      H1315   0.989       .  S
O1293      H1307   0.990       .  S
O1293      H1314   0.990       .  S
O1294      C1298   1.289       .  A
O1295      C1298   1.282   1_655  A
O1296      H1306   0.990       .  S
O1297      H1310   0.990       .  S
C1298      C1353   1.498       .  S
C1321      C1322   1.412       .  A
C1321      C1326   1.415       .  A
C1321      C1339   1.450   1_455  S
C1322      C1327   1.501       .  S
C1322      C1323   1.411       .  A
C1323      C1324   1.409       .  A
C1323      C1328   1.452       .  S
C1324      C1325   1.416       .  A
C1324      C1340   1.452       .  S
C1325      C1326   1.415       .  A
C1326      C1329   1.450       .  S
C1327      C1330   1.410       .  A
C1327      C1334   1.410   1_455  A
C1328      N1345   1.157       .  T
C1329      N1347   1.157       .  T
C1330      C1331   1.413       .  A
C1330      C1335   1.451       .  S
C1331      C1332   1.419       .  A
C1331      C1337   1.451       .  S
C1332      C1333   1.418   1_455  A
C1333      C1334   1.412       .  A
C1333      C1336   1.449       .  S
C1334      C1338   1.452       .  S
C1335      N1342   1.157       .  T
C1336      N1343   1.157       .  T
C1337      N1341   1.157       .  T
C1338      N1344   1.157       .  T
C1339      N1348   1.157       .  T
C1340      N1346   1.157       .  T
C1349      C1350   1.414       .  A
C1349      C1354   1.419       .  A
C1349      C1367   1.449       .  S
C1350      C1355   1.507       .  S
C1350      C1351   1.411       .  A
C1351      C1352   1.411       .  A
C1351      C1356   1.451   1_455  S
C1352      C1353   1.418       .  A
C1352      C1368   1.452   1_455  S
C1353      C1354   1.416       .  A
C1354      C1357   1.450       .  S
C1355      C1358   1.413   1_455  A
C1355      C1362   1.412       .  A
C1356      N1373   1.157       .  T
C1357      N1375   1.157       .  T
C1358      C1359   1.417       .  A
C1358      C1363   1.450       .  S
C1359      C1360   1.417   1_655  A
C1359      C1365   1.450       .  S
C1360      C1361   1.416       .  A
C1361      C1362   1.413       .  A
C1361      C1364   1.450       .  S
C1362      C1366   1.451       .  S
C1363      N1370   1.157       .  T
C1364      N1371   1.157       .  T
C1365      N1369   1.157       .  T
C1366      N1372   1.157       .  T
C1367      N1376   1.157       .  T
C1368      N1374   1.157       .  T
C1377      C1378   1.408       .  A
C1377      C1382   1.413       .  A
C1377      C1395   1.451       .  S
C1378      C1383   1.490       .  S
C1378      C1379   1.403       .  A
C1379      C1380   1.406       .  A
C1379      C1384   1.453       .  S
C1380      C1381   1.425       .  A
C1380      C1396   1.451       .  S
C1381      C1382   1.421       .  A
C1382      C1385   1.450       .  S
C1383      C1386   1.407       .  A
C1383      C1390   1.409       .  A
C1384      N1401   1.157       .  T
C1385      N1403   1.157       .  T
C1386      C1387   1.409       .  A
C1386      C1391   1.451       .  S
C1387      C1388   1.420       .  A
C1387      C1393   1.451       .  S
C1388      C1389   1.419       .  A
C1389      C1390   1.409       .  A
C1389      C1392   1.451       .  S
C1390      C1394   1.452       .  S
C1391      N1398   1.157       .  T
C1392      N1399   1.157       .  T
C1393      N1397   1.157       .  T
C1394      N1400   1.157       .  T
C1395      N1404   1.157       .  T
C1396      N1402   1.157       .  T
C1405      C1406   1.410       .  A
C1405      C1410   1.410       .  A
C1405      C1423   1.452       .  S
C1406      C1411   1.491       .  S
C1406      C1407   1.408       .  A
C1407      C1408   1.408       .  A
C1407      C1412   1.451       .  S
C1408      C1409   1.416       .  A
C1408      C1424   1.451       .  S
C1409      C1410   1.417       .  A
C1410      C1413   1.450       .  S
C1411      C1414   1.412       .  A
C1411      C1418   1.410       .  A
C1412      N1429   1.157       .  T
C1413      N1431   1.157       .  T
C1414      C1415   1.409       .  A
C1414      C1419   1.450       .  S
C1415      C1416   1.412       .  A
C1415      C1421   1.452       .  S
C1416      C1417   1.413       .  A
C1417      C1418   1.407       .  A
C1417      C1420   1.451       .  S
C1418      C1422   1.451       .  S
C1419      N1426   1.157       .  T
C1420      N1427   1.157       .  T
C1421      N1425   1.157       .  T
C1422      N1428   1.157       .  T
C1423      N1432   1.157       .  T
C1424      N1430   1.157       .  T
C1433      C1434   1.409       .  A
C1433      C1438   1.410       .  A
C1433      C1451   1.451       .  S
C1434      C1439   1.491       .  S
C1434      C1435   1.407       .  A
C1435      C1436   1.410       .  A
C1435      C1440   1.452       .  S
C1436      C1437   1.419       .  A
C1436      C1452   1.451       .  S
C1437      C1438   1.417       .  A
C1438      C1441   1.450       .  S
C1439      C1442   1.407       .  A
C1439      C1446   1.409       .  A
C1440      N1457   1.157       .  T
C1441      N1459   1.157       .  T
C1442      C1443   1.408       .  A
C1442      C1447   1.451       .  S
C1443      C1444   1.418       .  A
C1443      C1449   1.451       .  S
C1444      C1445   1.417       .  A
C1445      C1446   1.409       .  A
C1445      C1448   1.452       .  S
C1446      C1450   1.451       .  S
C1447      N1454   1.157       .  T
C1448      N1455   1.157       .  T
C1449      N1453   1.157       .  T
C1450      N1456   1.157       .  T
C1451      N1460   1.157       .  T
C1452      N1458   1.157       .  T
C1461      C1462   1.410       .  A
C1461      C1466   1.410       .  A
C1461      C1479   1.450       .  S
C1462      C1467   1.493       .  S
C1462      C1463   1.408       .  A
C1463      C1464   1.409       .  A
C1463      C1468   1.452       .  S
C1464      C1465   1.417       .  A
C1464      C1480   1.450       .  S
C1465      C1466   1.415       .  A
C1466      C1469   1.451       .  S
C1467      C1470   1.411       .  A
C1467      C1474   1.409       .  A
C1468      N1485   1.157       .  T
C1469      N1487   1.157       .  T
C1470      C1471   1.409       .  A
C1470      C1475   1.450       .  S
C1471      C1472   1.413       .  A
C1471      C1477   1.451       .  S
C1472      C1473   1.416       .  A
C1473      C1474   1.409       .  A
C1473      C1476   1.451       .  S
C1474      C1478   1.451       .  S
C1475      N1482   1.157       .  T
C1476      N1483   1.157       .  T
C1477      N1481   1.157       .  T
C1478      N1484   1.157       .  T
C1479      N1488   1.157       .  T
C1480      N1486   1.157       .  T
C1489      C1490   1.407       .  A
C1489      C1494   1.406       .  A
C1489      C1507   1.452       .  S
C1490      C1495   1.490       .  S
C1490      C1491   1.413       .  A
C1491      C1492   1.410       .  A
C1491      C1496   1.450       .  S
C1492      C1493   1.408       .  A
C1492      C1508   1.449       .  S
C1493      C1494   1.414       .  A
C1494      C1497   1.448       .  S
C1495      C1498   1.410       .  A
C1495      C1502   1.409       .  A
C1496      N1513   1.157       .  T
C1497      N1515   1.156       .  T
C1498      C1499   1.407       .  A
C1498      C1503   1.452       .  S
C1499      C1500   1.414       .  A
C1499      C1505   1.451       .  S
C1500      C1501   1.416       .  A
C1501      C1502   1.408       .  A
C1501      C1504   1.452       .  S
C1502      C1506   1.451       .  S
C1503      N1510   1.157       .  T
C1504      N1511   1.157       .  T
C1505      N1509   1.157       .  T
C1506      N1512   1.157       .  T
C1507      N1516   1.157       .  T
C1508      N1514   1.157       .  T
C1517      C1518   1.416       .  A
C1517      C1522   1.414       .  A
C1517      C1535   1.451       .  S
C1518      C1523   1.501       .  S
C1518      C1519   1.410       .  A
C1519      C1520   1.409       .  A
C1519      C1524   1.451       .  S
C1520      C1521   1.414       .  A
C1520      C1536   1.450       .  S
C1521      C1522   1.411       .  A
C1522      C1525   1.450       .  S
C1523      C1526   1.412       .  A
C1523      C1530   1.416       .  A
C1524      N1541   1.157       .  T
C1525      N1543   1.157       .  T
C1526      C1527   1.407       .  A
C1526      C1531   1.451       .  S
C1527      C1528   1.412       .  A
C1527      C1533   1.452       .  S
C1528      C1529   1.409       .  A
C1529      C1530   1.414       .  A
C1529      C1532   1.450       .  S
C1530      C1534   1.450       .  S
C1531      N1538   1.157       .  T
C1532      N1539   1.157       .  T
C1533      N1537   1.157       .  T
C1534      N1540   1.157       .  T
C1535      N1544   1.157       .  T
C1536      N1542   1.156       .  T
C1545      C1546   1.409       .  A
C1545      C1550   1.410       .  A
C1545      C1563   1.451       .  S
C1546      C1551   1.488       .  S
C1546      C1547   1.406       .  A
C1547      C1548   1.407       .  A
C1547      C1552   1.452       .  S
C1548      C1549   1.418       .  A
C1548      C1564   1.451       .  S
C1549      C1550   1.415       .  A
C1550      C1553   1.451       .  S
C1551      C1554   1.410       .  A
C1551      C1558   1.412       .  A
C1552      N1569   1.157       .  T
C1553      N1571   1.157   1_556  T
C1554      C1555   1.407       .  A
C1554      C1559   1.451       .  S
C1555      C1556   1.412       .  A
C1555      C1561   1.452       .  S
C1556      C1557   1.408       .  A
C1557      C1558   1.407       .  A
C1557      C1560   1.451       .  S
C1558      C1562   1.451       .  S
C1559      N1566   1.157   1_455  T
C1560      N1567   1.157       .  T
C1561      N1565   1.157       .  T
C1562      N1568   1.157       .  T
C1563      N1572   1.157   1_556  T
C1564      N1570   1.157       .  T
C1573      C1574   1.411       .  A
C1573      C1578   1.408       .  A
C1573      C1591   1.450       .  S
C1574      C1579   1.488       .  S
C1574      C1575   1.410       .  A
C1575      C1576   1.406       .  A
C1575      C1580   1.451       .  S
C1576      C1577   1.411       .  A
C1576      C1592   1.452       .  S
C1577      C1578   1.408       .  A
C1578      C1581   1.450       .  S
C1579      C1582   1.409       .  A
C1579      C1586   1.409       .  A
C1580      N1597   1.157       .  T
C1581      N1599   1.157       .  T
C1582      C1583   1.406       .  A
C1582      C1587   1.452       .  S
C1583      C1584   1.415       .  A
C1583      C1589   1.452       .  S
C1584      C1585   1.413       .  A
C1585      C1586   1.409       .  A
C1585      C1588   1.449       .  S
C1586      C1590   1.450       .  S
C1587      N1594   1.157       .  T
C1588      N1595   1.157       .  T
C1589      N1593   1.157   1_556  T
C1590      N1596   1.157       .  T
C1591      N1600   1.157       .  T
C1592      N1598   1.157       .  T
C1601      C1602   1.410       .  A
C1601      C1606   1.413       .  A
C1601      C1619   1.451       .  S
C1602      C1607   1.502       .  S
C1602      C1603   1.413       .  A
C1603      C1604   1.413       .  A
C1603      C1608   1.451       .  S
C1604      C1605   1.416       .  A
C1604      C1620   1.450       .  S
C1605      C1606   1.418       .  A
C1606      C1609   1.449       .  S
C1607      C1610   1.415       .  A
C1607      C1614   1.410       .  A
C1608      N1625   1.157       .  T
C1609      N1627   1.157       .  T
C1610      C1611   1.416       .  A
C1610      C1615   1.450       .  S
C1611      C1612   1.412       .  A
C1611      C1617   1.450       .  S
C1612      C1613   1.416       .  A
C1613      C1614   1.409       .  A
C1613      C1616   1.452       .  S
C1614      C1618   1.451       .  S
C1615      N1622   1.157       .  T
C1616      N1623   1.157       .  T
C1617      N1621   1.157       .  T
C1618      N1624   1.157       .  T
C1619      N1628   1.157       .  T
C1620      N1626   1.157       .  T
C1629      C1630   1.409       .  A
C1629      C1634   1.409       .  A
C1629      C1647   1.452       .  S
C1630      C1635   1.500       .  S
C1630      C1631   1.414       .  A
C1631      C1632   1.415       .  A
C1631      C1636   1.450       .  S
C1632      C1633   1.413       .  A
C1632      C1648   1.450       .  S
C1633      C1634   1.417       .  A
C1634      C1637   1.451       .  S
C1635      C1638   1.412       .  A
C1635      C1642   1.410       .  A
C1636      N1653   1.157       .  T
C1637      N1655   1.157       .  T
C1638      C1639   1.413       .  A
C1638      C1643   1.451       .  S
C1639      C1640   1.417       .  A
C1639      C1645   1.451       .  S
C1640      C1641   1.418       .  A
C1641      C1642   1.411       .  A
C1641      C1644   1.451       .  S
C1642      C1646   1.451       .  S
C1643      N1650   1.157       .  T
C1644      N1651   1.157       .  T
C1645      N1649   1.157       .  T
C1646      N1652   1.157       .  T
C1647      N1656   1.157       .  T
C1648      N1654   1.157       .  T
C1657      C1658   1.409       .  A
C1657      C1662   1.407       .  A
C1657      C1675   1.452       .  S
C1658      C1663   1.491       .  S
C1658      C1659   1.410       .  A
C1659      C1660   1.409       .  A
C1659      C1664   1.450       .  S
C1660      C1661   1.414       .  A
C1660      C1676   1.451       .  S
C1661      C1662   1.415       .  A
C1662      C1665   1.451       .  S
C1663      C1666   1.409       .  A
C1663      C1670   1.408       .  A
C1664      N1681   1.157       .  T
C1665      N1683   1.157       .  T
C1666      C1667   1.408       .  A
C1666      C1671   1.451       .  S
C1667      C1668   1.417       .  A
C1667      C1673   1.452       .  S
C1668      C1669   1.417       .  A
C1669      C1670   1.409       .  A
C1669      C1672   1.451       .  S
C1670      C1674   1.451       .  S
C1671      N1678   1.157       .  T
C1672      N1679   1.157       .  T
C1673      N1677   1.157       .  T
C1674      N1680   1.157       .  T
C1675      N1684   1.157       .  T
C1676      N1682   1.157       .  T
C1685      C1686   1.407       .  A
C1685      C1690   1.407       .  A
C1685      C1703   1.452       .  S
C1686      C1691   1.491       .  S
C1686      C1687   1.411       .  A
C1687      C1688   1.413       .  A
C1687      C1692   1.450       .  S
C1688      C1689   1.414       .  A
C1688      C1704   1.450       .  S
C1689      C1690   1.418       .  A
C1690      C1693   1.452       .  S
C1691      C1694   1.409       .  A
C1691      C1698   1.412       .  A
C1692      N1709   1.157       .  T
C1693      N1711   1.157       .  T
C1694      C1695   1.405       .  A
C1694      C1699   1.451       .  S
C1695      C1696   1.413       .  A
C1695      C1701   1.452       .  S
C1696      C1697   1.410       .  A
C1697      C1698   1.412       .  A
C1697      C1700   1.450       .  S
C1698      C1702   1.449       .  S
C1699      N1706   1.157       .  T
C1700      N1707   1.157       .  T
C1701      N1705   1.157       .  T
C1702      N1708   1.157       .  T
C1703      N1712   1.157       .  T
C1704      N1710   1.157       .  T
C1713      C1714   1.410       .  A
C1713      C1718   1.413       .  A
C1713      C1731   1.450       .  S
C1714      C1719   1.494       .  S
C1714      C1715   1.407       .  A
C1715      C1716   1.408       .  A
C1715      C1720   1.453       .  S
C1716      C1717   1.419       .  A
C1716      C1732   1.451       .  S
C1717      C1718   1.416       .  A
C1718      C1721   1.449       .  S
C1719      C1722   1.410       .  A
C1719      C1726   1.409       .  A
C1720      N1737   1.157       .  T
C1721      N1739   1.157       .  T
C1722      C1723   1.412       .  A
C1722      C1727   1.451       .  S
C1723      C1724   1.416       .  A
C1723      C1729   1.451       .  S
C1724      C1725   1.415       .  A
C1725      C1726   1.408       .  A
C1725      C1728   1.451       .  S
C1726      C1730   1.451       .  S
C1727      N1734   1.157       .  T
C1728      N1735   1.157       .  T
C1729      N1733   1.157       .  T
C1730      N1736   1.157       .  T
C1731      N1740   1.157       .  T
C1732      N1738   1.157       .  T
C1741      C1742   1.408       .  A
C1741      C1746   1.411       .  A
C1741      C1759   1.452       .  S
C1742      C1747   1.495       .  S
C1742      C1743   1.410       .  A
C1743      C1744   1.410       .  A
C1743      C1748   1.450       .  S
C1744      C1745   1.414       .  A
C1744      C1760   1.449       .  S
C1745      C1746   1.420       .  A
C1746      C1749   1.451       .  S
C1747      C1750   1.411       .  A
C1747      C1754   1.410       .  A
C1748      N1765   1.157       .  T
C1749      N1767   1.157       .  T
C1750      C1751   1.412       .  A
C1750      C1755   1.450       .  S
C1751      C1752   1.414       .  A
C1751      C1757   1.450       .  S
C1752      C1753   1.415       .  A
C1753      C1754   1.408       .  A
C1753      C1756   1.452       .  S
C1754      C1758   1.452       .  S
C1755      N1762   1.157       .  T
C1756      N1763   1.157       .  T
C1757      N1761   1.157       .  T
C1758      N1764   1.157       .  T
C1759      N1768   1.157       .  T
C1760      N1766   1.157       .  T
C1769      C1770   1.409       .  A
C1769      C1774   1.412       .  A
C1769      C1787   1.449       .  S
C1770      C1775   1.497       .  S
C1770      C1771   1.411       .  A
C1771      C1772   1.409       .  A
C1771      C1776   1.451       .  S
C1772      C1773   1.415       .  A
C1772      C1788   1.450       .  S
C1773      C1774   1.417       .  A
C1774      C1777   1.452       .  S
C1775      C1778   1.408       .  A
C1775      C1782   1.412       .  A
C1776      N1793   1.157       .  T
C1777      N1795   1.158       .  T
C1778      C1779   1.409       .  A
C1778      C1783   1.451       .  S
C1779      C1780   1.416       .  A
C1779      C1785   1.451       .  S
C1780      C1781   1.413       .  A
C1781      C1782   1.415       .  A
C1781      C1784   1.450       .  S
C1782      C1786   1.449       .  S
C1783      N1790   1.157   1_655  T
C1784      N1791   1.158       .  T
C1785      N1789   1.157       .  T
C1786      N1792   1.157       .  T
C1787      N1796   1.157       .  T
C1788      N1794   1.157       .  T
C1797      C1798   1.408       .  A
C1797      C1802   1.404       .  A
C1797      C1815   1.452       .  S
C1798      C1803   1.482       .  S
C1798      C1799   1.409       .  A
C1799      C1800   1.406       .  A
C1799      C1804   1.450       .  S
C1800      C1801   1.410       .  A
C1800      C1816   1.450       .  S
C1801      C1802   1.414       .  A
C1802      C1805   1.452       .  S
C1803      C1806   1.408       .  A
C1803      C1810   1.404       .  A
C1804      N1821   1.157       .  T
C1805      N1823   1.157       .  T
C1806      C1807   1.409       .  A
C1806      C1811   1.451       .  S
C1807      C1808   1.417       .  A
C1807      C1813   1.450       .  S
C1808      C1809   1.418       .  A
C1809      C1810   1.403       .  A
C1809      C1812   1.448       .  S
C1810      C1814   1.454       .  S
C1811      N1818   1.157       .  T
C1812      N1819   1.155       .  T
C1813      N1817   1.157       .  T
C1814      N1820   1.157       .  T
C1815      N1824   1.157       .  T
C1816      N1822   1.157       .  T
C1825      C1826   1.413       .  A
C1825      C1830   1.415       .  A
C1825      C1843   1.451       .  S
C1826      C1831   1.496       .  S
C1826      C1827   1.407       .  A
C1827      C1828   1.405       .  A
C1827      C1832   1.452       .  S
C1828      C1829   1.418       .  A
C1828      C1844   1.451       .  S
C1829      C1830   1.417       .  A
C1830      C1833   1.451       .  S
C1831      C1834   1.408       .  A
C1831      C1838   1.411       .  A
C1832      N1849   1.157       .  T
C1833      N1851   1.158   1_556  T
C1834      C1835   1.411       .  A
C1834      C1839   1.451       .  S
C1835      C1836   1.421       .  A
C1835      C1841   1.450       .  S
C1836      C1837   1.419       .  A
C1837      C1838   1.409       .  A
C1837      C1840   1.452   1_655  S
C1838      C1842   1.452   1_655  S
C1839      N1846   1.157       .  T
C1840      N1847   1.157       .  T
C1841      N1845   1.157       .  T
C1842      N1848   1.157       .  T
C1843      N1852   1.157       .  T
C1844      N1850   1.157       .  T
C1853      C1854   1.411       .  A
C1853      C1858   1.409       .  A
C1853      C1871   1.450       .  S
C1854      C1859   1.489       .  S
C1854      C1855   1.408       .  A
C1855      C1856   1.407       .  A
C1855      C1860   1.451       .  S
C1856      C1857   1.416       .  A
C1856      C1872   1.452       .  S
C1857      C1858   1.411       .  A
C1858      C1861   1.450       .  S
C1859      C1862   1.408       .  A
C1859      C1866   1.410       .  A
C1860      N1877   1.157       .  T
C1861      N1879   1.157       .  T
C1862      C1863   1.406       .  A
C1862      C1867   1.452       .  S
C1863      C1864   1.414       .  A
C1863      C1869   1.449       .  S
C1864      C1865   1.411       .  A
C1865      C1866   1.410       .  A
C1865      C1868   1.450       .  S
C1866      C1870   1.450       .  S
C1867      N1874   1.157       .  T
C1868      N1875   1.157       .  T
C1869      N1873   1.156       .  T
C1870      N1876   1.157       .  T
C1871      N1880   1.157       .  T
C1872      N1878   1.157       .  T
C1881      C1882   1.415       .  A
C1881      C1886   1.415       .  A
C1881      C1899   1.451       .  S
C1882      C1887   1.504       .  S
C1882      C1883   1.411       .  A
C1883      C1884   1.410       .  A
C1883      C1888   1.451       .  S
C1884      C1885   1.416       .  A
C1884      C1900   1.451       .  S
C1885      C1886   1.416       .  A
C1886      C1889   1.450       .  S
C1887      C1890   1.415       .  A
C1887      C1894   1.413       .  A
C1888      N1905   1.157       .  T
C1889      N1907   1.157       .  T
C1890      C1891   1.414       .  A
C1890      C1895   1.450       .  S
C1891      C1892   1.413       .  A
C1891      C1897   1.450       .  S
C1892      C1893   1.414       .  A
C1893      C1894   1.410       .  A
C1893      C1896   1.452       .  S
C1894      C1898   1.451       .  S
C1895      N1902   1.157       .  T
C1896      N1903   1.157       .  T
C1897      N1901   1.157       .  T
C1898      N1904   1.157       .  T
C1899      N1908   1.157       .  T
C1900      N1906   1.157       .  T
C1909      C1910   1.412       .  A
C1909      C1914   1.407       .  A
C1909      C1927   1.451       .  S
C1910      C1915   1.502       .  S
C1910      C1911   1.415       .  A
C1911      C1912   1.415       .  A
C1911      C1916   1.449       .  S
C1912      C1913   1.411       .  A
C1912      C1928   1.450       .  S
C1913      C1914   1.413       .  A
C1914      C1917   1.453       .  S
C1915      C1918   1.413       .  A
C1915      C1922   1.410       .  A
C1916      N1933   1.157       .  T
C1917      N1935   1.157       .  T
C1918      C1919   1.413       .  A
C1918      C1923   1.451       .  S
C1919      C1920   1.416       .  A
C1919      C1925   1.449       .  S
C1920      C1921   1.417       .  A
C1921      C1922   1.413       .  A
C1921      C1924   1.450       .  S
C1922      C1926   1.451       .  S
C1923      N1930   1.157       .  T
C1924      N1931   1.157       .  T
C1925      N1929   1.157       .  T
C1926      N1932   1.157       .  T
C1927      N1936   1.157       .  T
C1928      N1934   1.157       .  T
C1937      C1938   1.409       .  A
C1937      C1942   1.410       .  A
C1937      C1955   1.450       .  S
C1938      C1943   1.491       .  S
C1938      C1939   1.412       .  A
C1939      C1940   1.407       .  A
C1939      C1944   1.451       .  S
C1940      C1941   1.410       .  A
C1940      C1956   1.451       .  S
C1941      C1942   1.415       .  A
C1942      C1945   1.452       .  S
C1943      C1946   1.410       .  A
C1943      C1950   1.412       .  A
C1944      N1961   1.157       .  T
C1945      N1963   1.157       .  T
C1946      C1947   1.406       .  A
C1946      C1951   1.451       .  S
C1947      C1948   1.411       .  A
C1947      C1953   1.452   1_545  S
C1948      C1949   1.412       .  A
C1949      C1950   1.412       .  A
C1949      C1952   1.450       .  S
C1950      C1954   1.450       .  S
C1951      N1958   1.157       .  T
C1952      N1959   1.157   1_545  T
C1953      N1957   1.157       .  T
C1954      N1960   1.157       .  T
C1955      N1964   1.157       .  T
C1956      N1962   1.157       .  T
C1965      C1966   1.411       .  A
C1965      C1970   1.404       .  A
C1965      C1983   1.452       .  S
C1966      C1971   1.481       .  S
C1966      C1967   1.408       .  A
C1967      C1968   1.405       .  A
C1967      C1972   1.452       .  S
C1968      C1969   1.412   1_455  A
C1968      C1984   1.452   1_455  S
C1969      C1970   1.409   1_655  A
C1970      C1973   1.451       .  S
C1971      C1974   1.410       .  A
C1971      C1978   1.407       .  A
C1972      N1989   1.157       .  T
C1973      N1991   1.157       .  T
C1974      C1975   1.403       .  A
C1974      C1979   1.452       .  S
C1975      C1976   1.412       .  A
C1975      C1981   1.452       .  S
C1976      C1977   1.415       .  A
C1977      C1978   1.404       .  A
C1977      C1980   1.453       .  S
C1978      C1982   1.451       .  S
C1979      N1986   1.157       .  T
C1980      N1987   1.157       .  T
C1981      N1985   1.157       .  T
C1982      N1988   1.157       .  T
C1983      N1992   1.157       .  T
C1984      N1990   1.157       .  T
C1993      C1994   1.413   1_554  A
C1993      C1998   1.409       .  A
C1993      C2011   1.450       .  S
C1994      C1999   1.493       .  S
C1994      C1995   1.411       .  A
C1995      C1996   1.407       .  A
C1995      C2000   1.451       .  S
C1996      C1997   1.411       .  A
C1996      C2012   1.452   1_545  S
C1997      C1998   1.407   1_556  A
C1998      C2001   1.450       .  S
C1999      C2002   1.412       .  A
C1999      C2006   1.408       .  A
C2000      N2017   1.157       .  T
C2001      N2019   1.157       .  T
C2002      C2003   1.408       .  A
C2002      C2007   1.452       .  S
C2003      C2004   1.413       .  A
C2003      C2009   1.450       .  S
C2004      C2005   1.418       .  A
C2005      C2006   1.411       .  A
C2005      C2008   1.451   1_556  S
C2006      C2010   1.451   1_556  S
C2007      N2014   1.157       .  T
C2008      N2015   1.157       .  T
C2009      N2013   1.157       .  T
C2010      N2016   1.157       .  T
C2011      N2020   1.157       .  T
C2012      N2018   1.157       .  T
C2021      C2022   1.411       .  A
C2021      C2026   1.411       .  A
C2021      C2039   1.450       .  S
C2022      C2027   1.495       .  S
C2022      C2023   1.409       .  A
C2023      C2024   1.408       .  A
C2023      C2028   1.452       .  S
C2024      C2025   1.416       .  A
C2024      C2040   1.451       .  S
C2025      C2026   1.413       .  A
C2026      C2029   1.450       .  S
C2027      C2030   1.408       .  A
C2027      C2034   1.410       .  A
C2028      N2045   1.157       .  T
C2029      N2047   1.157       .  T
C2030      C2031   1.410       .  A
C2030      C2035   1.451       .  S
C2031      C2032   1.418       .  A
C2031      C2037   1.450       .  S
C2032      C2033   1.415       .  A
C2033      C2034   1.411       .  A
C2033      C2036   1.448       .  S
C2034      C2038   1.452       .  S
C2035      N2042   1.157       .  T
C2036      N2043   1.156       .  T
C2037      N2041   1.157       .  T
C2038      N2044   1.157       .  T
C2039      N2048   1.157       .  T
C2040      N2046   1.157       .  T
C2049      C2050   1.407       .  A
C2049      C2054   1.407       .  A
C2049      C2067   1.452       .  S
C2050      C2055   1.492       .  S
C2050      C2051   1.410       .  A
C2051      C2052   1.412       .  A
C2051      C2056   1.451       .  S
C2052      C2053   1.418       .  A
C2052      C2068   1.450       .  S
C2053      C2054   1.417       .  A
C2054      C2057   1.450       .  S
C2055      C2058   1.410       .  A
C2055      C2062   1.412       .  A
C2056      N2073   1.157       .  T
C2057      N2075   1.157       .  T
C2058      C2059   1.408       .  A
C2058      C2063   1.451       .  S
C2059      C2060   1.415       .  A
C2059      C2065   1.452       .  S
C2060      C2061   1.411       .  A
C2061      C2062   1.408       .  A
C2061      C2064   1.451       .  S
C2062      C2066   1.450       .  S
C2063      N2070   1.157       .  T
C2064      N2071   1.157       .  T
C2065      N2069   1.157       .  T
C2066      N2072   1.157       .  T
C2067      N2076   1.157       .  T
C2068      N2074   1.157       .  T
C2077      C2078   1.411       .  A
C2077      C2082   1.409       .  A
C2077      C2095   1.452       .  S
C2078      C2083   1.488       .  S
C2078      C2079   1.404       .  A
C2079      C2080   1.408       .  A
C2079      C2084   1.451   1_556  S
C2080      C2081   1.423       .  A
C2080      C2096   1.452   1_556  S
C2081      C2082   1.416       .  A
C2082      C2085   1.450       .  S
C2083      C2086   1.412   1_556  A
C2083      C2090   1.409       .  A
C2084      N2101   1.157       .  T
C2085      N2103   1.157       .  T
C2086      C2087   1.408       .  A
C2086      C2091   1.450       .  S
C2087      C2088   1.407       .  A
C2087      C2093   1.450       .  S
C2088      C2089   1.412   1_554  A
C2089      C2090   1.407       .  A
C2089      C2092   1.452   1_455  S
C2090      C2094   1.450       .  S
C2091      N2098   1.157       .  T
C2092      N2099   1.157       .  T
C2093      N2097   1.157       .  T
C2094      N2100   1.157       .  T
C2095      N2104   1.157       .  T
C2096      N2102   1.157       .  T
C2105      C2106   1.412       .  A
C2105      C2110   1.409       .  A
C2105      C2123   1.450       .  S
C2106      C2111   1.493       .  S
C2106      C2107   1.411       .  A
C2107      C2108   1.408       .  A
C2107      C2112   1.451       .  S
C2108      C2109   1.412       .  A
C2108      C2124   1.452       .  S
C2109      C2110   1.408       .  A
C2110      C2113   1.450       .  S
C2111      C2114   1.412       .  A
C2111      C2118   1.406       .  A
C2112      N2129   1.157       .  T
C2113      N2131   1.157       .  T
C2114      C2115   1.412       .  A
C2114      C2119   1.452       .  S
C2115      C2116   1.416       .  A
C2115      C2121   1.451       .  S
C2116      C2117   1.418       .  A
C2117      C2118   1.407       .  A
C2117      C2120   1.452       .  S
C2118      C2122   1.450       .  S
C2119      N2126   1.157       .  T
C2120      N2127   1.157       .  T
C2121      N2125   1.157       .  T
C2122      N2128   1.157       .  T
C2123      N2132   1.157       .  T
C2124      N2130   1.157       .  T
C2133      C2134   1.411       .  A
C2133      C2138   1.408       .  A
C2133      C2151   1.450       .  S
C2134      C2139   1.488       .  S
C2134      C2135   1.408       .  A
C2135      C2136   1.406       .  A
C2135      C2140   1.451       .  S
C2136      C2137   1.415       .  A
C2136      C2152   1.452       .  S
C2137      C2138   1.411       .  A
C2138      C2141   1.451       .  S
C2139      C2142   1.408       .  A
C2139      C2146   1.409       .  A
C2140      N2157   1.157       .  T
C2141      N2159   1.157       .  T
C2142      C2143   1.406       .  A
C2142      C2147   1.453       .  S
C2143      C2144   1.416       .  A
C2143      C2149   1.452       .  S
C2144      C2145   1.415       .  A
C2145      C2146   1.410       .  A
C2145      C2148   1.450       .  S
C2146      C2150   1.450       .  S
C2147      N2154   1.157       .  T
C2148      N2155   1.157       .  T
C2149      N2153   1.157       .  T
C2150      N2156   1.157       .  T
C2151      N2160   1.157       .  T
C2152      N2158   1.157       .  T
C2161      C2162   1.413       .  A
C2161      C2166   1.411       .  A
C2161      C2179   1.452       .  S
C2162      C2167   1.497       .  S
C2162      C2163   1.407       .  A
C2163      C2164   1.411       .  A
C2163      C2168   1.450       .  S
C2164      C2165   1.420       .  A
C2164      C2180   1.452       .  S
C2165      C2166   1.415       .  A
C2166      C2169   1.451       .  S
C2167      C2170   1.411       .  A
C2167      C2174   1.411       .  A
C2168      N2185   1.157       .  T
C2169      N2187   1.157       .  T
C2170      C2171   1.410       .  A
C2170      C2175   1.450       .  S
C2171      C2172   1.411       .  A
C2171      C2177   1.450       .  S
C2172      C2173   1.412       .  A
C2173      C2174   1.411       .  A
C2173      C2176   1.451       .  S
C2174      C2178   1.450       .  S
C2175      N2182   1.157       .  T
C2176      N2183   1.157       .  T
C2177      N2181   1.157       .  T
C2178      N2184   1.157       .  T
C2179      N2188   1.157       .  T
C2180      N2186   1.157       .  T
C2189      C2190   1.413       .  A
C2189      C2194   1.410       .  A
C2189      C2207   1.450       .  S
C2190      C2195   1.498       .  S
C2190      C2191   1.415       .  A
C2191      C2192   1.410       .  A
C2191      C2196   1.450       .  S
C2192      C2193   1.407       .  A
C2192      C2208   1.451       .  S
C2193      C2194   1.411       .  A
C2194      C2197   1.452       .  S
C2195      C2198   1.410       .  A
C2195      C2202   1.413       .  A
C2196      N2213   1.157       .  T
C2197      N2215   1.157       .  T
C2198      C2199   1.413       .  A
C2198      C2203   1.450       .  S
C2199      C2200   1.418       .  A
C2199      C2205   1.452       .  S
C2200      C2201   1.414       .  A
C2201      C2202   1.410       .  A
C2201      C2204   1.451       .  S
C2202      C2206   1.452       .  S
C2203      N2210   1.157       .  T
C2204      N2211   1.157       .  T
C2205      N2209   1.158       .  T
C2206      N2212   1.157       .  T
C2207      N2216   1.157       .  T
C2208      N2214   1.157       .  T
C2217      C2218   1.414       .  A
C2217      C2222   1.413       .  A
C2217      C2235   1.450       .  S
C2218      C2223   1.500       .  S
C2218      C2219   1.411       .  A
C2219      C2220   1.409       .  A
C2219      C2224   1.451       .  S
C2220      C2221   1.416       .  A
C2220      C2236   1.452       .  S
C2221      C2222   1.411       .  A
C2222      C2225   1.448       .  S
C2223      C2226   1.410       .  A
C2223      C2230   1.411       .  A
C2224      N2241   1.157       .  T
C2225      N2243   1.157       .  T
C2226      C2227   1.412       .  A
C2226      C2231   1.452       .  S
C2227      C2228   1.419       .  A
C2227      C2233   1.451       .  S
C2228      C2229   1.418       .  A
C2229      C2230   1.413       .  A
C2229      C2232   1.451       .  S
C2230      C2234   1.451       .  S
C2231      N2238   1.157       .  T
C2232      N2239   1.157       .  T
C2233      N2237   1.157       .  T
C2234      N2240   1.157       .  T
C2235      N2244   1.157       .  T
C2236      N2242   1.157       .  T
C2245      C2246   1.410       .  A
C2245      C2250   1.410       .  A
C2245      C2263   1.452       .  S
C2246      C2251   1.494       .  S
C2246      C2247   1.408       .  A
C2247      C2248   1.411       .  A
C2247      C2252   1.451       .  S
C2248      C2249   1.417       .  A
C2248      C2264   1.450       .  S
C2249      C2250   1.417       .  A
C2250      C2253   1.451       .  S
C2251      C2254   1.411       .  A
C2251      C2258   1.411       .  A
C2252      N2269   1.157       .  T
C2253      N2271   1.157       .  T
C2254      C2255   1.407       .  A
C2254      C2259   1.450       .  S
C2255      C2256   1.412       .  A
C2255      C2261   1.452       .  S
C2256      C2257   1.414       .  A
C2257      C2258   1.410       .  A
C2257      C2260   1.451       .  S
C2258      C2262   1.451       .  S
C2259      N2266   1.157       .  T
C2260      N2267   1.157       .  T
C2261      N2265   1.157       .  T
C2262      N2268   1.157       .  T
C2263      N2272   1.157       .  T
C2264      N2270   1.157       .  T
C2273      C2274   1.410       .  A
C2273      C2278   1.408       .  A
C2273      C2291   1.452       .  S
C2274      C2279   1.493       .  S
C2274      C2275   1.411       .  A
C2275      C2276   1.409       .  A
C2275      C2280   1.450       .  S
C2276      C2277   1.411       .  A
C2276      C2292   1.451       .  S
C2277      C2278   1.415       .  A
C2278      C2281   1.452       .  S
C2279      C2282   1.410       .  A
C2279      C2286   1.408       .  A
C2280      N2297   1.157       .  T
C2281      N2299   1.157       .  T
C2282      C2283   1.411       .  A
C2282      C2287   1.451       .  S
C2283      C2284   1.416       .  A
C2283      C2289   1.451       .  S
C2284      C2285   1.417       .  A
C2285      C2286   1.408       .  A
C2285      C2288   1.451       .  S
C2286      C2290   1.452       .  S
C2287      N2294   1.157       .  T
C2288      N2295   1.157   1_554  T
C2289      N2293   1.157       .  T
C2290      N2296   1.157       .  T
C2291      N2300   1.157       .  T
C2292      N2298   1.157       .  T
C2301      C2302   1.409       .  A
C2301      C2306   1.408       .  A
C2301      C2319   1.452       .  S
C2302      C2307   1.488       .  S
C2302      C2303   1.406       .  A
C2303      C2304   1.405       .  A
C2303      C2308   1.452       .  S
C2304      C2305   1.420       .  A
C2304      C2320   1.452       .  S
C2305      C2306   1.417       .  A
C2306      C2309   1.451       .  S
C2307      C2310   1.407       .  A
C2307      C2314   1.409       .  A
C2308      N2325   1.157       .  T
C2309      N2327   1.157       .  T
C2310      C2311   1.404       .  A
C2310      C2315   1.454       .  S
C2311      C2312   1.419       .  A
C2311      C2317   1.450       .  S
C2312      C2313   1.418       .  A
C2313      C2314   1.412       .  A
C2313      C2316   1.449       .  S
C2314      C2318   1.451       .  S
C2315      N2322   1.157       .  T
C2316      N2323   1.157       .  T
C2317      N2321   1.157       .  T
C2318      N2324   1.157       .  T
C2319      N2328   1.157       .  T
C2320      N2326   1.157       .  T
C2329      C2330   1.411       .  A
C2329      C2334   1.405       .  A
C2329      C2347   1.453       .  S
C2330      C2335   1.494       .  S
C2330      C2331   1.413       .  A
C2331      C2332   1.409       .  A
C2331      C2336   1.451       .  S
C2332      C2333   1.412       .  A
C2332      C2348   1.450       .  S
C2333      C2334   1.413       .  A
C2334      C2337   1.448       .  S
C2335      C2338   1.412       .  A
C2335      C2342   1.411       .  A
C2336      N2353   1.157       .  T
C2337      N2355   1.155       .  T
C2338      C2339   1.409       .  A
C2338      C2343   1.452       .  S
C2339      C2340   1.416       .  A
C2339      C2345   1.451       .  S
C2340      C2341   1.416       .  A
C2341      C2342   1.407       .  A
C2341      C2344   1.451       .  S
C2342      C2346   1.452       .  S
C2343      N2350   1.157       .  T
C2344      N2351   1.157       .  T
C2345      N2349   1.157       .  T
C2346      N2352   1.157       .  T
C2347      N2356   1.157       .  T
C2348      N2354   1.157       .  T
C2357      C2358   1.412       .  A
C2357      C2362   1.405       .  A
C2357      C2375   1.451       .  S
C2358      C2363   1.493       .  S
C2358      C2359   1.413       .  A
C2359      C2360   1.409       .  A
C2359      C2364   1.452       .  S
C2360      C2361   1.413       .  A
C2360      C2376   1.452       .  S
C2361      C2362   1.411       .  A
C2362      C2365   1.452       .  S
C2363      C2366   1.411       .  A
C2363      C2370   1.412       .  A
C2364      N2381   1.157       .  T
C2365      N2383   1.157       .  T
C2366      C2367   1.407       .  A
C2366      C2371   1.452       .  S
C2367      C2368   1.415       .  A
C2367      C2373   1.452       .  S
C2368      C2369   1.413       .  A
C2369      C2370   1.408       .  A
C2369      C2372   1.451   1_565  S
C2370      C2374   1.452       .  S
C2371      N2378   1.157       .  T
C2372      N2379   1.157       .  T
C2373      N2377   1.157       .  T
C2374      N2380   1.157       .  T
C2375      N2384   1.157   1_565  T
C2376      N2382   1.158       .  T
C2385      C2386   1.411       .  A
C2385      C2390   1.411       .  A
C2385      C2403   1.450       .  S
C2386      C2391   1.492       .  S
C2386      C2387   1.411       .  A
C2387      C2388   1.406       .  A
C2387      C2392   1.452       .  S
C2388      C2389   1.413       .  A
C2388      C2404   1.451       .  S
C2389      C2390   1.413       .  A
C2390      C2393   1.450       .  S
C2391      C2394   1.411       .  A
C2391      C2398   1.413       .  A
C2392      N2409   1.157       .  T
C2393      N2411   1.157       .  T
C2394      C2395   1.405       .  A
C2394      C2399   1.452       .  S
C2395      C2396   1.410       .  A
C2395      C2401   1.452       .  S
C2396      C2397   1.410       .  A
C2397      C2398   1.410       .  A
C2397      C2400   1.451       .  S
C2398      C2402   1.449       .  S
C2399      N2406   1.157       .  T
C2400      N2407   1.157       .  T
C2401      N2405   1.157       .  T
C2402      N2408   1.157       .  T
C2403      N2412   1.157       .  T
C2404      N2410   1.157       .  T
C2413      C2414   1.408       .  A
C2413      C2418   1.409       .  A
C2413      C2431   1.452       .  S
C2414      C2419   1.490       .  S
C2414      C2415   1.409       .  A
C2415      C2416   1.408       .  A
C2415      C2420   1.451       .  S
C2416      C2417   1.415       .  A
C2416      C2432   1.451   1_565  S
C2417      C2418   1.417       .  A
C2418      C2421   1.449       .  S
C2419      C2422   1.409       .  A
C2419      C2426   1.411       .  A
C2420      N2437   1.157       .  T
C2421      N2439   1.157       .  T
C2422      C2423   1.405       .  A
C2422      C2427   1.452       .  S
C2423      C2424   1.414       .  A
C2423      C2429   1.452       .  S
C2424      C2425   1.414       .  A
C2425      C2426   1.409       .  A
C2425      C2428   1.452       .  S
C2426      C2430   1.450       .  S
C2427      N2434   1.157   1_565  T
C2428      N2435   1.157       .  T
C2429      N2433   1.157       .  T
C2430      N2436   1.157       .  T
C2431      N2440   1.157       .  T
C2432      N2438   1.157       .  T
C2441      C2442   1.407   1_565  A
C2441      C2446   1.409       .  A
C2441      C2459   1.451       .  S
C2442      C2447   1.494   1_545  S
C2442      C2443   1.411       .  A
C2443      C2444   1.410       .  A
C2443      C2448   1.452       .  S
C2444      C2445   1.418       .  A
C2444      C2460   1.451       .  S
C2445      C2446   1.420   1_545  A
C2446      C2449   1.452       .  S
C2447      C2450   1.412       .  A
C2447      C2454   1.410   1_565  A
C2448      N2465   1.157       .  T
C2449      N2467   1.157       .  T
C2450      C2451   1.412       .  A
C2450      C2455   1.450       .  S
C2451      C2452   1.411       .  A
C2451      C2457   1.451       .  S
C2452      C2453   1.413   1_565  A
C2453      C2454   1.407       .  A
C2453      C2456   1.451       .  S
C2454      C2458   1.452       .  S
C2455      N2462   1.157       .  T
C2456      N2463   1.157       .  T
C2457      N2461   1.157       .  T
C2458      N2464   1.157       .  T
C2459      N2468   1.157       .  T
C2460      N2466   1.157       .  T
C2469      C2470   1.412       .  A
C2469      C2474   1.412       .  A
C2469      C2487   1.450       .  S
C2470      C2475   1.493       .  S
C2470      C2471   1.407   1_545  A
C2471      C2472   1.406       .  A
C2471      C2476   1.451       .  S
C2472      C2473   1.416   1_565  A
C2472      C2488   1.451       .  S
C2473      C2474   1.413       .  A
C2474      C2477   1.450       .  S
C2475      C2478   1.408       .  A
C2475      C2482   1.408   1_545  A
C2476      N2493   1.157       .  T
C2477      N2495   1.157       .  T
C2478      C2479   1.411       .  A
C2478      C2483   1.452       .  S
C2479      C2480   1.418       .  A
C2479      C2485   1.449       .  S
C2480      C2481   1.418   1_545  A
C2481      C2482   1.410       .  A
C2481      C2484   1.451       .  S
C2482      C2486   1.451       .  S
C2483      N2490   1.157       .  T
C2484      N2491   1.157       .  T
C2485      N2489   1.157       .  T
C2486      N2492   1.157       .  T
C2487      N2496   1.157       .  T
C2488      N2494   1.157       .  T
C2497      C2498   1.412       .  A
C2497      C2502   1.408       .  A
C2497      C2515   1.450       .  S
C2498      C2503   1.491       .  S
C2498      C2499   1.410       .  A
C2499      C2500   1.405       .  A
C2499      C2504   1.451       .  S
C2500      C2501   1.411       .  A
C2500      C2516   1.452       .  S
C2501      C2502   1.410       .  A
C2502      C2505   1.451       .  S
C2503      C2506   1.411       .  A
C2503      C2510   1.408       .  A
C2504      N2521   1.157       .  T
C2505      N2523   1.157       .  T
C2506      C2507   1.407       .  A
C2506      C2511   1.453       .  S
C2507      C2508   1.416       .  A
C2507      C2513   1.451       .  S
C2508      C2509   1.418       .  A
C2509      C2510   1.410       .  A
C2509      C2512   1.451       .  S
C2510      C2514   1.451       .  S
C2511      N2518   1.157       .  T
C2512      N2519   1.157       .  T
C2513      N2517   1.157       .  T
C2514      N2520   1.157       .  T
C2515      N2524   1.157       .  T
C2516      N2522   1.157       .  T
C2525      C2526   1.411       .  A
C2525      C2530   1.404       .  A
C2525      C2543   1.452       .  S
C2526      C2531   1.484       .  S
C2526      C2527   1.412       .  A
C2527      C2528   1.405       .  A
C2527      C2532   1.451       .  S
C2528      C2529   1.407       .  A
C2528      C2544   1.450       .  S
C2529      C2530   1.410       .  A
C2530      C2533   1.452       .  S
C2531      C2534   1.408       .  A
C2531      C2538   1.411       .  A
C2532      N2549   1.157       .  T
C2533      N2551   1.157       .  T
C2534      C2535   1.399       .  A
C2534      C2539   1.454       .  S
C2535      C2536   1.415       .  A
C2535      C2541   1.452       .  S
C2536      C2537   1.411       .  A
C2537      C2538   1.410       .  A
C2537      C2540   1.449       .  S
C2538      C2542   1.450       .  S
C2539      N2546   1.157       .  T
C2540      N2547   1.157       .  T
C2541      N2545   1.157       .  T
C2542      N2548   1.157       .  T
C2543      N2552   1.157       .  T
C2544      N2550   1.157       .  T
C2553      C2554   1.406       .  A
C2553      C2558   1.409       .  A
C2553      C2571   1.450       .  S
C2554      C2559   1.488       .  S
C2554      C2555   1.412       .  A
C2555      C2556   1.407       .  A
C2555      C2560   1.453       .  S
C2556      C2557   1.414       .  A
C2556      C2572   1.452       .  S
C2557      C2558   1.418       .  A
C2558      C2561   1.451       .  S
C2559      C2562   1.409       .  A
C2559      C2566   1.411       .  A
C2560      N2577   1.157       .  T
C2561      N2579   1.157       .  T
C2562      C2563   1.406       .  A
C2562      C2567   1.450       .  S
C2563      C2564   1.412       .  A
C2563      C2569   1.452       .  S
C2564      C2565   1.408       .  A
C2565      C2566   1.407       .  A
C2565      C2568   1.451       .  S
C2566      C2570   1.450       .  S
C2567      N2574   1.157       .  T
C2568      N2575   1.157       .  T
C2569      N2573   1.157       .  T
C2570      N2576   1.157       .  T
C2571      N2580   1.157       .  T
C2572      N2578   1.157       .  T
C2581      C2582   1.408       .  A
C2581      C2586   1.405       .  A
C2581      C2599   1.450       .  S
C2582      C2587   1.487       .  S
C2582      C2583   1.409       .  A
C2583      C2584   1.409       .  A
C2583      C2588   1.450       .  S
C2584      C2585   1.411       .  A
C2584      C2600   1.448       .  S
C2585      C2586   1.413       .  A
C2586      C2589   1.452       .  S
C2587      C2590   1.408       .  A
C2587      C2594   1.413       .  A
C2588      N2605   1.157       .  T
C2589      N2607   1.157       .  T
C2590      C2591   1.408       .  A
C2590      C2595   1.449       .  S
C2591      C2592   1.410       .  A
C2591      C2597   1.449       .  S
C2592      C2593   1.411       .  A
C2593      C2594   1.407       .  A
C2593      C2596   1.452       .  S
C2594      C2598   1.452       .  S
C2595      N2602   1.157       .  T
C2596      N2603   1.157       .  T
C2597      N2601   1.157       .  T
C2598      N2604   1.157       .  T
C2599      N2608   1.157       .  T
C2600      N2606   1.157       .  T
C2609      C2610   1.407       .  A
C2609      C2614   1.402       .  A
C2609      C2627   1.453       .  S
C2610      C2615   1.485       .  S
C2610      C2611   1.411       .  A
C2611      C2612   1.412       .  A
C2611      C2616   1.450       .  S
C2612      C2613   1.410       .  A
C2612      C2628   1.449       .  S
C2613      C2614   1.413       .  A
C2614      C2617   1.451       .  S
C2615      C2618   1.409       .  A
C2615      C2622   1.406       .  A
C2616      N2633   1.157       .  T
C2617      N2635   1.157       .  T
C2618      C2619   1.407       .  A
C2618      C2623   1.452       .  S
C2619      C2620   1.415       .  A
C2619      C2625   1.450       .  S
C2620      C2621   1.418       .  A
C2621      C2622   1.405       .  A
C2621      C2624   1.452       .  S
C2622      C2626   1.451       .  S
C2623      N2630   1.157       .  T
C2624      N2631   1.157       .  T
C2625      N2629   1.157       .  T
C2626      N2632   1.157       .  T
C2627      N2636   1.157       .  T
C2628      N2634   1.157   1_556  T
C2637      C2638   1.413       .  A
C2637      C2642   1.408       .  A
C2637      C2655   1.452       .  S
C2638      C2643   1.497       .  S
C2638      C2639   1.413       .  A
C2639      C2640   1.411       .  A
C2639      C2644   1.450       .  S
C2640      C2641   1.409       .  A
C2640      C2656   1.449       .  S
C2641      C2642   1.412       .  A
C2642      C2645   1.451       .  S
C2643      C2646   1.411       .  A
C2643      C2650   1.412       .  A
C2644      N2661   1.157       .  T
C2645      N2663   1.157       .  T
C2646      C2647   1.408       .  A
C2646      C2651   1.452       .  S
C2647      C2648   1.417       .  A
C2647      C2653   1.451       .  S
C2648      C2649   1.417       .  A
C2649      C2650   1.410       .  A
C2649      C2652   1.450       .  S
C2650      C2654   1.451       .  S
C2651      N2658   1.157       .  T
C2652      N2659   1.157       .  T
C2653      N2657   1.157       .  T
C2654      N2660   1.157       .  T
C2655      N2664   1.157       .  T
C2656      N2662   1.157       .  T
C2665      C2666   1.408       .  A
C2665      C2670   1.413       .  A
C2665      C2683   1.451       .  S
C2666      C2671   1.502       .  S
C2666      C2667   1.411       .  A
C2667      C2668   1.415       .  A
C2667      C2672   1.450       .  S
C2668      C2669   1.418       .  A
C2668      C2684   1.450       .  S
C2669      C2670   1.422       .  A
C2670      C2673   1.451       .  S
C2671      C2674   1.411       .  A
C2671      C2678   1.412       .  A
C2672      N2689   1.157       .  T
C2673      N2691   1.157       .  T
C2674      C2675   1.413       .  A
C2674      C2679   1.451       .  S
C2675      C2676   1.416       .  A
C2675      C2681   1.450       .  S
C2676      C2677   1.417       .  A
C2677      C2678   1.413       .  A
C2677      C2680   1.452       .  S
C2678      C2682   1.450       .  S
C2679      N2686   1.157       .  T
C2680      N2687   1.157       .  T
C2681      N2685   1.157       .  T
C2682      N2688   1.157       .  T
C2683      N2692   1.157       .  T
C2684      N2690   1.157       .  T
C2693      C2694   1.409       .  A
C2693      C2698   1.404       .  A
C2693      C2711   1.452       .  S
C2694      C2699   1.488       .  S
C2694      C2695   1.412       .  A
C2695      C2696   1.410       .  A
C2695      C2700   1.449       .  S
C2696      C2697   1.407       .  A
C2696      C2712   1.450       .  S
C2697      C2698   1.411       .  A
C2698      C2701   1.450       .  S
C2699      C2702   1.407       .  A
C2699      C2706   1.410       .  A
C2700      N2717   1.157       .  T
C2701      N2719   1.157       .  T
C2702      C2703   1.408       .  A
C2702      C2707   1.451       .  S
C2703      C2704   1.419       .  A
C2703      C2709   1.453       .  S
C2704      C2705   1.413       .  A
C2705      C2706   1.408       .  A
C2705      C2708   1.450       .  S
C2706      C2710   1.451       .  S
C2707      N2714   1.157       .  T
C2708      N2715   1.157       .  T
C2709      N2713   1.158       .  T
C2710      N2716   1.157       .  T
C2711      N2720   1.157       .  T
C2712      N2718   1.157       .  T
C2721      C2722   1.411       .  A
C2721      C2726   1.413       .  A
C2721      C2739   1.452       .  S
C2722      C2727   1.496       .  S
C2722      C2723   1.406       .  A
C2723      C2724   1.410       .  A
C2723      C2728   1.451       .  S
C2724      C2725   1.423       .  A
C2724      C2740   1.452       .  S
C2725      C2726   1.418       .  A
C2726      C2729   1.450       .  S
C2727      C2730   1.413       .  A
C2727      C2734   1.412       .  A
C2728      N2745   1.157       .  T
C2729      N2747   1.157       .  T
C2730      C2731   1.409       .  A
C2730      C2735   1.450       .  S
C2731      C2732   1.409   1_565  A
C2731      C2737   1.451       .  S
C2732      C2733   1.411       .  A
C2733      C2734   1.410   1_545  A
C2733      C2736   1.451       .  S
C2734      C2738   1.450       .  S
C2735      N2742   1.157       .  T
C2736      N2743   1.157       .  T
C2737      N2741   1.157       .  T
C2738      N2744   1.157       .  T
C2739      N2748   1.157       .  T
C2740      N2746   1.157       .  T
C2749      C2750   1.405       .  A
C2749      C2754   1.404       .  A
C2749      C2767   1.454       .  S
C2750      C2755   1.492       .  S
C2750      C2751   1.411       .  A
C2751      C2752   1.414       .  A
C2751      C2756   1.451       .  S
C2752      C2753   1.419       .  A
C2752      C2768   1.450       .  S
C2753      C2754   1.422       .  A
C2754      C2757   1.450       .  S
C2755      C2758   1.410       .  A
C2755      C2762   1.412       .  A
C2756      N2773   1.157       .  T
C2757      N2775   1.156       .  T
C2758      C2759   1.408       .  A
C2758      C2763   1.451       .  S
C2759      C2760   1.416       .  A
C2759      C2765   1.451       .  S
C2760      C2761   1.415       .  A
C2761      C2762   1.408       .  A
C2761      C2764   1.453       .  S
C2762      C2766   1.452       .  S
C2763      N2770   1.157       .  T
C2764      N2771   1.158       .  T
C2765      N2769   1.157       .  T
C2766      N2772   1.157       .  T
C2767      N2776   1.157       .  T
C2768      N2774   1.157       .  T
C2777      C2778   1.409       .  A
C2777      C2782   1.406       .  A
C2777      C2795   1.452       .  S
C2778      C2783   1.495       .  S
C2778      C2779   1.413       .  A
C2779      C2780   1.413       .  A
C2779      C2784   1.450       .  S
C2780      C2781   1.415       .  A
C2780      C2796   1.451       .  S
C2781      C2782   1.418       .  A
C2782      C2785   1.453       .  S
C2783      C2786   1.408       .  A
C2783      C2790   1.410       .  A
C2784      N2801   1.157       .  T
C2785      N2803   1.157       .  T
C2786      C2787   1.411       .  A
C2786      C2791   1.451       .  S
C2787      C2788   1.419       .  A
C2787      C2793   1.450       .  S
C2788      C2789   1.419       .  A
C2789      C2790   1.410       .  A
C2789      C2792   1.449       .  S
C2790      C2794   1.452       .  S
C2791      N2798   1.157       .  T
C2792      N2799   1.157       .  T
C2793      N2797   1.157       .  T
C2794      N2800   1.157       .  T
C2795      N2804   1.157       .  T
C2796      N2802   1.157       .  T
C2805      C2806   1.406       .  A
C2805      C2810   1.408       .  A
C2805      C2823   1.451       .  S
C2806      C2811   1.486       .  S
C2806      C2807   1.409       .  A
C2807      C2808   1.406       .  A
C2807      C2812   1.452       .  S
C2808      C2809   1.415       .  A
C2808      C2824   1.451       .  S
C2809      C2810   1.418       .  A
C2810      C2813   1.452       .  S
C2811      C2814   1.409       .  A
C2811      C2818   1.411       .  A
C2812      N2829   1.157       .  T
C2813      N2831   1.157       .  T
C2814      C2815   1.405       .  A
C2814      C2819   1.452       .  S
C2815      C2816   1.411   1_655  A
C2815      C2821   1.452   1_655  S
C2816      C2817   1.409   1_455  A
C2817      C2818   1.408       .  A
C2817      C2820   1.450       .  S
C2818      C2822   1.450       .  S
C2819      N2826   1.157       .  T
C2820      N2827   1.157       .  T
C2821      N2825   1.157       .  T
C2822      N2828   1.157       .  T
C2823      N2832   1.157       .  T
C2824      N2830   1.157       .  T
C2833      C2834   1.412   1_556  A
C2833      C2838   1.412       .  A
C2833      C2851   1.452       .  S
C2834      C2839   1.497       .  S
C2834      C2835   1.407       .  A
C2835      C2836   1.411       .  A
C2835      C2840   1.451       .  S
C2836      C2837   1.422   1_554  A
C2836      C2852   1.451       .  S
C2837      C2838   1.416       .  A
C2838      C2841   1.450       .  S
C2839      C2842   1.412       .  A
C2839      C2846   1.412   1_554  A
C2840      N2857   1.157       .  T
C2841      N2859   1.157       .  T
C2842      C2843   1.409       .  A
C2842      C2847   1.450       .  S
C2843      C2844   1.409   1_565  A
C2843      C2849   1.450       .  S
C2844      C2845   1.412       .  A
C2845      C2846   1.409   1_544  A
C2845      C2848   1.452   1_554  S
C2846      C2850   1.450       .  S
C2847      N2854   1.157       .  T
C2848      N2855   1.157       .  T
C2849      N2853   1.157       .  T
C2850      N2856   1.157       .  T
C2851      N2860   1.157       .  T
C2852      N2858   1.157       .  T
C2861      C2862   1.410       .  A
C2861      C2866   1.412       .  A
C2861      C2879   1.451       .  S
C2862      C2867   1.495       .  S
C2862      C2863   1.407       .  A
C2863      C2864   1.408       .  A
C2863      C2868   1.453       .  S
C2864      C2865   1.422       .  A
C2864      C2880   1.450       .  S
C2865      C2866   1.417       .  A
C2866      C2869   1.449       .  S
C2867      C2870   1.408       .  A
C2867      C2874   1.411       .  A
C2868      N2885   1.157       .  T
C2869      N2887   1.157       .  T
C2870      C2871   1.409       .  A
C2870      C2875   1.452       .  S
C2871      C2872   1.419       .  A
C2871      C2877   1.451       .  S
C2872      C2873   1.415       .  A
C2873      C2874   1.411       .  A
C2873      C2876   1.450       .  S
C2874      C2878   1.451       .  S
C2875      N2882   1.157       .  T
C2876      N2883   1.157   1_556  T
C2877      N2881   1.157       .  T
C2878      N2884   1.157       .  T
C2879      N2888   1.157       .  T
C2880      N2886   1.157       .  T
C2889      C2890   1.409       .  A
C2889      C2894   1.407       .  A
C2889      C2907   1.451       .  S
C2890      C2895   1.495       .  S
C2890      C2891   1.413       .  A
C2891      C2892   1.413       .  A
C2891      C2896   1.450       .  S
C2892      C2893   1.411       .  A
C2892      C2908   1.450       .  S
C2893      C2894   1.414       .  A
C2894      C2897   1.450       .  S
C2895      C2898   1.414       .  A
C2895      C2902   1.411       .  A
C2896      N2913   1.157       .  T
C2897      N2915   1.157       .  T
C2898      C2899   1.410       .  A
C2898      C2903   1.450       .  S
C2899      C2900   1.407       .  A
C2899      C2905   1.450       .  S
C2900      C2901   1.412       .  A
C2901      C2902   1.409       .  A
C2901      C2904   1.452       .  S
C2902      C2906   1.450       .  S
C2903      N2910   1.157       .  T
C2904      N2911   1.157       .  T
C2905      N2909   1.157       .  T
C2906      N2912   1.157       .  T
C2907      N2916   1.157       .  T
C2908      N2914   1.157       .  T
C2917      C2918   1.408       .  A
C2917      C2922   1.409       .  A
C2917      C2935   1.452       .  S
C2918      C2923   1.498       .  S
C2918      C2919   1.410       .  A
C2919      C2920   1.414       .  A
C2919      C2924   1.450       .  S
C2920      C2921   1.419       .  A
C2920      C2936   1.451       .  S
C2921      C2922   1.419       .  A
C2922      C2925   1.449       .  S
C2923      C2926   1.410       .  A
C2923      C2930   1.412       .  A
C2924      N2941   1.157       .  T
C2925      N2943   1.156       .  T
C2926      C2927   1.412       .  A
C2926      C2931   1.451       .  S
C2927      C2928   1.417       .  A
C2927      C2933   1.450       .  S
C2928      C2929   1.413       .  A
C2929      C2930   1.412       .  A
C2929      C2932   1.450       .  S
C2930      C2934   1.450       .  S
C2931      N2938   1.157       .  T
C2932      N2939   1.157       .  T
C2933      N2937   1.157       .  T
C2934      N2940   1.157       .  T
C2935      N2944   1.157       .  T
C2936      N2942   1.158       .  T
C2945      C2946   1.411       .  A
C2945      C2950   1.415       .  A
C2945      C2963   1.451       .  S
C2946      C2951   1.498       .  S
C2946      C2947   1.407       .  A
C2947      C2948   1.409       .  A
C2947      C2952   1.451       .  S
C2948      C2949   1.417       .  A
C2948      C2964   1.450       .  S
C2949      C2950   1.419       .  A
C2950      C2953   1.450       .  S
C2951      C2954   1.411       .  A
C2951      C2958   1.408       .  A
C2952      N2969   1.157       .  T
C2953      N2971   1.157       .  T
C2954      C2955   1.413       .  A
C2954      C2959   1.451       .  S
C2955      C2956   1.416       .  A
C2955      C2961   1.451       .  S
C2956      C2957   1.419       .  A
C2957      C2958   1.411       .  A
C2957      C2960   1.450       .  S
C2958      C2962   1.451       .  S
C2959      N2966   1.157       .  T
C2960      N2967   1.157       .  T
C2961      N2965   1.157       .  T
C2962      N2968   1.157       .  T
C2963      N2972   1.157       .  T
C2964      N2970   1.157       .  T
C2973      C2974   1.409       .  A
C2973      C2978   1.405       .  A
C2973      C2991   1.453       .  S
C2974      C2979   1.485       .  S
C2974      C2975   1.405   1_556  A
C2975      C2976   1.409       .  A
C2975      C2980   1.451       .  S
C2976      C2977   1.422   1_554  A
C2976      C2992   1.452       .  S
C2977      C2978   1.414       .  A
C2978      C2981   1.450       .  S
C2979      C2982   1.410   1_556  A
C2979      C2986   1.409       .  A
C2980      N2997   1.157       .  T
C2981      N2999   1.157       .  T
C2982      C2983   1.406       .  A
C2982      C2987   1.449       .  S
C2983      C2984   1.407   1_654  A
C2983      C2989   1.451       .  S
C2984      C2985   1.411       .  A
C2985      C2986   1.405   1_455  A
C2985      C2988   1.452       .  S
C2986      C2990   1.451       .  S
C2987      N2994   1.157       .  T
C2988      N2995   1.158       .  T
C2989      N2993   1.157   1_655  T
C2990      N2996   1.157       .  T
C2991      N3000   1.157       .  T
C2992      N2998   1.157       .  T
