geometry optimzed in LAMMPS
_audit_creation_date              2020-11-30 
_audit_creation_method            'lammps2cif' 
_symmetry_space_group_name_H-M    'P1' 
_symmetry_Int_Tables_number       1 
_symmetry_cell_setting            triclinic 
loop_ 
_symmetry_equiv_pos_as_xyz 
  x,y,z 
_cell_length_a                    38.4001988 
_cell_length_b                    38.76010890673592 
_cell_length_c                    39.22773253343038 
_cell_angle_alpha                 90.20878200121825 
_cell_angle_beta                  89.81122088604312 
_cell_angle_gamma                 89.90283363549212 
loop_ 
_atom_site_label 
_atom_site_type_symbol 
_atom_site_fract_x 
_atom_site_fract_y 
_atom_site_fract_z 
_atom_site_charge 
N1          N  0.57972833  0.46832346  0.02559989    -0.05600
N2          N  0.60788805  0.46218760  0.04391720    -0.57700
N3          N  0.56406875  0.44390806  0.46326479    -0.05200
N4          N  0.56969912  0.41946359  0.44036585    -0.59800
N5          N  0.58298125  0.47121934  0.45631181    -0.04800
N6          N  0.60183703  0.46621053  0.42863978    -0.57700
N7          N  0.55571057  0.44513937  0.03203558    -0.04500
N8          N  0.56647390  0.42297945  0.05483485    -0.60200
C9          C  0.59878275  0.43390425  0.06196203     0.96600
C10         C  0.59313076  0.43398879  0.41898276     0.96400
N11         N  0.45673627  0.45035535  0.47716208    -0.05700
N12         N  0.43278159  0.43688338  0.45712869    -0.58300
N13         N  0.47809028  0.44505175  0.05336008    -0.03900
N14         N  0.47879211  0.42333218  0.07916836    -0.59500
N15         N  0.45467405  0.46924523  0.05872141    -0.05800
N16         N  0.43903154  0.46459406  0.08831773    -0.58500
N17         N  0.48487343  0.43095142  0.47699762    -0.03500
N18         N  0.48074698  0.40381009  0.45717920    -0.59600
Mn19       Mn  0.50711088  0.44224224  0.00504474     1.18400
C20         C  0.44820169  0.40786835  0.44514502     0.98700
C21         C  0.45479555  0.43626542  0.10110230     0.99400
N22         N  0.56804715  0.54870157  0.44550481    -0.05800
N23         N  0.58679523  0.55425441  0.41805171    -0.62100
N24         N  0.55364529  0.57295688  0.02695312    -0.04600
N25         N  0.56145130  0.59426142  0.05187371    -0.62800
N26         N  0.57777667  0.54917746  0.02335394    -0.05300
N27         N  0.60284633  0.55393156  0.04575564    -0.62400
N28         N  0.54022961  0.56837865  0.44568402    -0.04200
N29         N  0.53937833  0.58781673  0.41824130    -0.63100
Mn30       Mn  0.58183579  0.51681958  0.48864834     1.10700
C31         C  0.56859976  0.57864013  0.40125623     0.99900
C32         C  0.59189568  0.58193481  0.06354685     1.00000
N33         N  0.45387946  0.54983696  0.05375508    -0.05300
N34         N  0.43952170  0.55766768  0.08334916    -0.60700
N35         N  0.46133544  0.55587309  0.45793596    -0.04600
N36         N  0.44969455  0.57167910  0.43060302    -0.57400
N37         N  0.44183001  0.52902245  0.46506384    -0.05900
N38         N  0.41640131  0.52602519  0.44267547    -0.60300
N39         N  0.47694951  0.57323564  0.04535289    -0.04900
N40         N  0.47912906  0.59728972  0.06884383    -0.57400
Mn41       Mn  0.44250795  0.50708957  0.01910022     1.20200
Mn42       Mn  0.50579138  0.57023277  0.48971026     1.10100
Cl43       Cl  0.50649454  0.50716011  0.00203624    -0.85400
C44         C  0.45568418  0.58737937  0.09227686     0.96900
C45         C  0.42162581  0.55287504  0.42132713     0.96700
N46         N  0.42254175  0.95721864  0.03883550    -0.05600
N47         N  0.39772471  0.93532508  0.04784882    -0.57700
N48         N  0.44632729  0.03626559  0.06172795    -0.05200
N49         N  0.43649201  0.05559847  0.08790147    -0.59800
N50         N  0.42163586  0.03578931  0.03840877    -0.04800
N51         N  0.39480336  0.05480905  0.04873973    -0.57700
N52         N  0.44711535  0.95787705  0.06226533    -0.04500
N53         N  0.43925499  0.93652011  0.08725405    -0.60200
C54         C  0.40852458  0.92224292  0.07814132     0.96600
C55         C  0.40432712  0.06722072  0.07977136     0.96400
N56         N  0.55505519  0.03537764  0.03638187    -0.05700
N57         N  0.58135997  0.05600853  0.04346286    -0.58300
N58         N  0.53149449  0.95789511  0.06401187    -0.03900
N59         N  0.54138639  0.93897167  0.09038359    -0.59500
N60         N  0.55540935  0.95663363  0.03988816    -0.05800
N61         N  0.58168800  0.93669937  0.04944023    -0.58500
N62         N  0.53141479  0.03679089  0.06076810    -0.03500
N63         N  0.54170286  0.05843709  0.08498057    -0.59600
Mn64       Mn  0.48900421  0.99733004  0.06252305     1.18400
C65         C  0.57281705  0.07068248  0.07368094     0.98700
C66         C  0.57271909  0.92561969  0.08101579     0.99400
N67         N  0.42457949  0.03229947  0.46023284    -0.05800
N68         N  0.39908683  0.05348679  0.45099065    -0.62100
N69         N  0.44927873  0.95344726  0.43523904    -0.04600
N70         N  0.44094007  0.93245666  0.40982770    -0.62800
N71         N  0.42474787  0.95305713  0.45883903    -0.05300
N72         N  0.39941045  0.93174188  0.44981673    -0.62400
N73         N  0.44931233  0.03225983  0.43679028    -0.04200
N74         N  0.44110397  0.05321299  0.41153875    -0.63100
Mn75       Mn  0.42159361  0.99607228  0.99700446     1.10700
C76         C  0.40991533  0.06659873  0.42064961     0.99900
C77         C  0.41008418  0.91861522  0.41945592     1.00000
N78         N  0.55753309  0.95397776  0.45967806    -0.05300
N79         N  0.58334424  0.93322555  0.45079765    -0.60700
N80         N  0.53304312  0.03271407  0.43673984    -0.04600
N81         N  0.54229372  0.05343445  0.41151729    -0.57400
N82         N  0.55716714  0.03268896  0.46057566    -0.05900
N83         N  0.58314152  0.05332509  0.45184983    -0.60300
N84         N  0.53330345  0.95396996  0.43599861    -0.04900
N85         N  0.54246414  0.93330213  0.41064736    -0.57400
Mn86       Mn  0.55514214  0.99439832  0.99735794     1.20200
Mn87       Mn  0.49123150  0.99304489  0.43592989     1.10100
Cl88       Cl  0.48859224  0.99520198  0.99723702    -0.85400
C89         C  0.57356948  0.92009493  0.42024744     0.96900
C90         C  0.57333377  0.06655788  0.42146111     0.96700
N91         N  0.94916096  0.55365933  0.04233174    -0.05600
N92         N  0.92786865  0.57950975  0.04954959    -0.57700
N93         N  0.02937170  0.53024740  0.06666035    -0.05200
N94         N  0.05237429  0.53812616  0.09042249    -0.59800
N95         N  0.02929488  0.55397015  0.04272105    -0.04800
N96         N  0.05227331  0.57836465  0.04988761    -0.57700
N97         N  0.94908869  0.53071693  0.06712917    -0.04500
N98         N  0.92780572  0.54125679  0.09184196    -0.60200
C99         C  0.91419917  0.57147284  0.08022849     0.96600
C100        C  0.06662680  0.56813766  0.07970462     0.96400
N101        N  0.03150515  0.42360852  0.04371014    -0.05700
N102        N  0.05430543  0.39917981  0.05138842    -0.58300
N103        N  0.95143630  0.44543489  0.06935935    -0.03900
N104        N  0.93321282  0.43467358  0.09607179    -0.59500
N105        N  0.95197710  0.42128462  0.04552455    -0.05800
N106        N  0.93392879  0.39402513  0.05570408    -0.58500
N107        N  0.03093822  0.44757444  0.06766261    -0.03500
N108        N  0.05343039  0.43974037  0.09198821    -0.59600
Mn109      Mn  0.98990053  0.48864757  0.06825307     1.18400
C110        C  0.06820306  0.40975453  0.08132835     0.98700
C111        C  0.92180195  0.40284802  0.08702415     0.99400
N112        N  0.02910664  0.55754650  0.45724847    -0.05800
N113        N  0.05181208  0.58147147  0.44816352    -0.62100
N114        N  0.94673159  0.53946885  0.43728281    -0.04600
N115        N  0.92608485  0.55153594  0.41301558    -0.62800
N116        N  0.95002957  0.56269576  0.46171313    -0.05300
N117        N  0.93172630  0.59061434  0.45436574    -0.62400
N118        N  0.02602360  0.53427399  0.43285964    -0.04200
N119        N  0.04672341  0.54202599  0.40699920    -0.63100
Mn120      Mn  0.98936064  0.55411155  0.00201216     1.10700
C121        C  0.06308221  0.57131473  0.41689117     0.99900
C122        C  0.91635054  0.58333680  0.42418093     1.00000
N123        N  0.94283060  0.43205808  0.46095585    -0.05300
N124        N  0.92187109  0.40618810  0.45410520    -0.60700
N125        N  0.02118074  0.45148991  0.43087696    -0.04600
N126        N  0.04014730  0.44168435  0.40431813    -0.57400
N127        N  0.02179714  0.42753230  0.45459114    -0.05900
N128        N  0.04117907  0.40117094  0.44446628    -0.60300
N129        N  0.94224657  0.45487539  0.43612831    -0.04900
N130        N  0.92119160  0.44397512  0.41152514    -0.57400
Mn131      Mn  0.99120137  0.42238537  0.00331620     1.20200
Mn132      Mn  0.98381147  0.49511398  0.43374067     1.10100
Cl133      Cl  0.98979418  0.48824326  0.00268832    -0.85400
C134        C  0.90858035  0.41343495  0.42327465     0.96900
C135        C  0.05263184  0.41021297  0.41302098     0.96700
C136        C  0.27382387  0.27782813  0.22676046     0.46000
H137        H  0.27666911  0.28464651  0.19974231    -0.03000
C138        C  0.26492874  0.26243035  0.29029751     0.46100
H139        H  0.26099599  0.25419352  0.31691569    -0.03000
C140        C  0.29953346  0.29744107  0.25116042    -0.16700
C141        C  0.23643111  0.28629689  0.23982049    -0.16500
C142        C  0.28064518  0.23892669  0.23404519    -0.16800
C143        C  0.29547378  0.28691123  0.28523188    -0.16800
C144        C  0.23291798  0.28126358  0.27432154    -0.16400
C145        C  0.27560339  0.23107250  0.26807773    -0.16700
C146        C  0.74530716  0.24826833  0.21537399     0.46000
H147        H  0.75400670  0.24875504  0.18842246    -0.03000
C148        C  0.72435646  0.24792452  0.27786938     0.46100
H149        H  0.71326772  0.24687811  0.30324454    -0.03000
C150        C  0.71836270  0.27659117  0.22320828    -0.16700
C151        C  0.72754131  0.21369813  0.22541491    -0.16500
C152        C  0.77513031  0.25541090  0.24113432    -0.16800
C153        C  0.70696522  0.27617779  0.25635764    -0.16800
C154        C  0.71623108  0.21375068  0.25901162    -0.16400
C155        C  0.76423634  0.25526562  0.27540226    -0.16700
C156        C  0.25763672  0.72448327  0.21570348     0.46000
H157        H  0.25769763  0.72352682  0.18763616    -0.03000
C158        C  0.25713497  0.72866064  0.28148011     0.46100
H159        H  0.25663426  0.73076366  0.30946261    -0.03000
C160        C  0.28498844  0.70136679  0.23245233    -0.16700
C161        C  0.26630582  0.76102861  0.22879684    -0.16500
C162        C  0.22289498  0.71246327  0.23174090    -0.16800
C163        C  0.28400629  0.70232403  0.26758678    -0.16800
C164        C  0.26658361  0.76334151  0.26400957    -0.16400
C165        C  0.22187441  0.71610237  0.26686030    -0.16700
C166        C  0.75395156  0.75097045  0.21591207     0.46000
H167        H  0.75481235  0.75336480  0.18771641    -0.03000
C168        C  0.75186032  0.74613354  0.28140386     0.46100
H169        H  0.74979721  0.74341729  0.30927233    -0.03000
C170        C  0.73430931  0.71897800  0.22793114    -0.16700
C171        C  0.79041859  0.74542670  0.23185144    -0.16500
C172        C  0.73456712  0.78176518  0.23310487    -0.16800
C173        C  0.73166233  0.71685928  0.26285747    -0.16800
C174        C  0.78996356  0.74472502  0.26755216    -0.16400
C175        C  0.73537893  0.77999677  0.26825849    -0.16700
C176        C  0.10323567  0.62209141  0.15275582    -0.11300
C177        C  0.13285007  0.63690479  0.13785481     0.11300
C178        C  0.14185303  0.62749630  0.10380620    -0.03100
C179        C  0.11896415  0.60593642  0.08531925    -0.05900
C180        C  0.08991921  0.59036742  0.10078822    -0.16600
C181        C  0.08271249  0.59774741  0.13557580     0.02300
C182        C  0.15510840  0.65799999  0.16113768     0.12200
C183        C  0.17522616  0.63828366  0.08591208     0.62900
H184        H  0.12478579  0.59987084  0.05889720     0.12300
C185        C  0.05337002  0.58034961  0.15476020     0.55000
H186        H  0.09721210  0.62875950  0.17896972     0.08100
C187        C  0.16215357  0.69374265  0.15741461    -0.05800
C188        C  0.18415616  0.70998666  0.18134314    -0.06500
C189        C  0.19769252  0.69258002  0.20989897    -0.16100
C190        C  0.18928533  0.65687243  0.21403620    -0.01700
C191        C  0.16801566  0.64083812  0.18976402    -0.09200
C192        C  0.14730961  0.71606796  0.12923238     0.65100
H193        H  0.19050265  0.73701803  0.17792155     0.10500
C194        C  0.20243820  0.63307079  0.24189657     0.63500
H195        H  0.16179278  0.61371491  0.19281769     0.07900
F196        F  0.04852302  0.59407796  0.18707690    -0.19600
F197        F  0.06047281  0.54556667  0.15818498    -0.15800
F198        F  0.02293765  0.58454552  0.13699043    -0.19300
F199        F  0.19816223  0.65557662  0.10689256    -0.22700
F200        F  0.16710619  0.65933790  0.05867214    -0.24200
F201        F  0.19218379  0.60922513  0.07366738    -0.18200
F202        F  0.17567704  0.62629617  0.26446680    -0.20600
F203        F  0.23018956  0.64636687  0.25928370    -0.21800
F204        F  0.21330824  0.60193637  0.22799835    -0.19000
F205        F  0.17412951  0.72717857  0.10838451    -0.19100
F206        F  0.13116074  0.74462883  0.14349759    -0.22900
F207        F  0.12302205  0.69916515  0.10940854    -0.24500
C208        C  0.13610708  0.68103926  0.30524482    -0.11300
C209        C  0.14915833  0.66043429  0.33174879     0.11300
C210        C  0.18519025  0.66141811  0.33900264    -0.03100
C211        C  0.20716942  0.68103994  0.31800261    -0.05900
C212        C  0.19469875  0.70074339  0.29039530    -0.16600
C213        C  0.15799375  0.70252966  0.28550158     0.02300
C214        C  0.12492538  0.63832965  0.35211057     0.12200
C215        C  0.20066468  0.64143774  0.36864045     0.62900
H216        H  0.23489110  0.67912466  0.32204379     0.12300
C217        C  0.14018220  0.72747851  0.26149192     0.55000
H218        H  0.10835323  0.68086520  0.30031767     0.08100
C219        C  0.10368383  0.65201163  0.37844943    -0.05800
C220        C  0.08455165  0.62914673  0.39919351    -0.06500
C221        C  0.08533245  0.59315388  0.39412726    -0.16100
C222        C  0.10644359  0.57951503  0.36739074    -0.01700
C223        C  0.12553376  0.60250993  0.34666347    -0.09200
C224        C  0.10084422  0.69067336  0.38429568     0.65100
H225        H  0.06808141  0.63946683  0.41923371     0.10500
C226        C  0.10989072  0.54093700  0.36118709     0.63500
H227        H  0.14175297  0.59264197  0.32618729     0.07900
F228        F  0.11506745  0.74582305  0.27933004    -0.19600
F229        F  0.12402764  0.70924549  0.23564006    -0.15800
F230        F  0.16282889  0.75117565  0.24743263    -0.19300
F231        F  0.19796728  0.60640289  0.36264024    -0.22700
F232        F  0.18315019  0.64965437  0.39844270    -0.24200
F233        F  0.23553474  0.64907487  0.37342195    -0.18200
F234        F  0.07900818  0.52804897  0.34842838    -0.20600
F235        F  0.11796952  0.52437788  0.39134533    -0.21800
F236        F  0.13598719  0.53336969  0.33787643    -0.19000
F237        F  0.08172379  0.69845232  0.41330251    -0.19100
F238        F  0.08443781  0.70571902  0.35677356    -0.22900
F239        F  0.13358162  0.70498579  0.38800104    -0.24500
C240        C  0.17505181  0.34252417  0.32871744    -0.11300
C241        C  0.14480296  0.32325717  0.33219321     0.11300
C242        C  0.14230768  0.29107821  0.31516840    -0.03100
C243        C  0.17194805  0.27802837  0.29751087    -0.05900
C244        C  0.20333643  0.29678220  0.29519487    -0.16600
C245        C  0.20411770  0.33066298  0.31056144     0.02300
C246        C  0.11643288  0.33988003  0.35263171     0.12200
C247        C  0.10813370  0.27159516  0.31442649     0.62900
H248        H  0.17053990  0.25333881  0.28460765     0.12300
C249        C  0.23343500  0.35697670  0.30926191     0.55000
H250        H  0.17588063  0.36784960  0.34064894     0.08100
C251        C  0.11646555  0.33892687  0.38877061    -0.05800
C252        C  0.09447043  0.36165318  0.40697739    -0.06500
C253        C  0.07411600  0.38685581  0.39067143    -0.16100
C254        C  0.07460100  0.38822559  0.35434616    -0.01700
C255        C  0.09533811  0.36421950  0.33610797    -0.09200
C256        C  0.14064624  0.31495138  0.40824066     0.65100
H257        H  0.09409825  0.36075570  0.43455097     0.10500
C258        C  0.05414714  0.41507161  0.33455722     0.63500
H259        H  0.09701892  0.36560516  0.30857640     0.07900
F260        F  0.24251344  0.36672183  0.34201350    -0.19600
F261        F  0.22218937  0.38615842  0.29231363    -0.15800
F262        F  0.26272223  0.34521890  0.29346304    -0.19300
F263        F  0.08284356  0.29189159  0.29943997    -0.22700
F264        F  0.09766155  0.26352949  0.34712914    -0.24200
F265        F  0.11083260  0.24119530  0.29596949    -0.18200
F266        F  0.05694209  0.41019990  0.29966049    -0.20600
F267        F  0.06677568  0.44764609  0.34192296    -0.21800
F268        F  0.01922637  0.41324175  0.34309747    -0.19000
F269        F  0.13774755  0.31953793  0.44315669    -0.19100
F270        F  0.17491475  0.32111004  0.39930040    -0.22900
F271        F  0.13266038  0.28103664  0.40090575    -0.24500
C272        C  0.17112234  0.29875617  0.16579783    -0.11300
C273        C  0.15813304  0.33197137  0.17254607     0.11300
C274        C  0.16745657  0.34844320  0.20336182    -0.03100
C275        C  0.19197576  0.33243040  0.22478276    -0.05900
C276        C  0.20773951  0.30046460  0.21694027    -0.16600
C277        C  0.19533443  0.28244608  0.18769857     0.02300
C278        C  0.13550623  0.34951734  0.14675654     0.12200
C279        C  0.15147206  0.38291080  0.21359872     0.62900
H280        H  0.19969322  0.34578214  0.24739817     0.12300
C281        C  0.20654860  0.24575802  0.17983797     0.55000
H282        H  0.16268536  0.28593265  0.14269025     0.08100
C283        C  0.14977904  0.36932855  0.11977980    -0.05800
C284        C  0.12714269  0.38844499  0.09853664    -0.06500
C285        C  0.09086158  0.38772345  0.10314713    -0.16100
C286        C  0.07659534  0.36606382  0.12862273    -0.01700
C287        C  0.09920894  0.34750887  0.15024604    -0.09200
C288        C  0.18885243  0.37029035  0.11380673     0.65100
H289        H  0.13763861  0.40444485  0.07841299     0.10500
C290        C  0.03752339  0.36235654  0.13263591     0.63500
H291        H  0.08876877  0.33163059  0.17049376     0.07900
F292        F  0.23981826  0.24572086  0.16648904    -0.19600
F293        F  0.18481795  0.23032727  0.15619876    -0.15800
F294        F  0.20550226  0.22605379  0.20916118    -0.19300
F295        F  0.11593604  0.37912252  0.21786027    -0.22700
F296        F  0.15762661  0.40729367  0.18868210    -0.24200
F297        F  0.16504743  0.39530474  0.24389679    -0.18200
F298        F  0.02923106  0.33937747  0.15823088    -0.20600
F299        F  0.02330436  0.35025107  0.10252862    -0.21800
F300        F  0.02275324  0.39392015  0.14066861    -0.19000
F301        F  0.19751895  0.39030968  0.08591760    -0.19100
F302        F  0.20113062  0.33723541  0.10792370    -0.22900
F303        F  0.20540570  0.38380559  0.14209071    -0.24500
C304        C  0.85289620  0.34911307  0.13376495    -0.11300
C305        C  0.87278011  0.33272389  0.15905240     0.11300
C306        C  0.90937196  0.33725673  0.15889137    -0.03100
C307        C  0.92446590  0.36070425  0.13539284    -0.05900
C308        C  0.90429118  0.37821670  0.11096845    -0.16600
C309        C  0.86810361  0.37141599  0.10944342     0.02300
C310        C  0.85421935  0.31097244  0.18508161     0.12200
C311        C  0.93225630  0.31625209  0.18255383     0.62900
H312        H  0.95229788  0.36513037  0.13555136     0.12300
C313        C  0.84574098  0.38790313  0.08220312     0.55000
H314        H  0.82514463  0.34437484  0.13336006     0.08100
C315        C  0.83943830  0.32550194  0.21506057    -0.05800
C316        C  0.81736412  0.30493267  0.23558003    -0.06500
C317        C  0.80851529  0.27077996  0.22672944    -0.16100
C318        C  0.82675259  0.25527015  0.19901210    -0.01700
C319        C  0.84842954  0.27584176  0.17812551    -0.09200
C320        C  0.84445483  0.36343354  0.22384275     0.65100
H321        H  0.80389642  0.31673351  0.25689616     0.10500
C322        C  0.82368262  0.21730287  0.19024207     0.63500
H323        H  0.86031432  0.26451042  0.15561149     0.07900
F324        F  0.81124721  0.37785297  0.08474816    -0.19600
F325        F  0.85791584  0.37833469  0.05031150    -0.15800
F326        F  0.84719088  0.42342057  0.08529160    -0.19300
F327        F  0.92765025  0.28149594  0.17597232    -0.22700
F328        F  0.92380944  0.32274972  0.21619839    -0.24200
F329        F  0.96706104  0.32378745  0.17809607    -0.18200
F330        F  0.80427853  0.21339907  0.16085955    -0.20600
F331        F  0.80835541  0.19862804  0.21620797    -0.21800
F332        F  0.85654763  0.20364442  0.18469278    -0.19000
F333        F  0.82683983  0.37262859  0.25329969    -0.19100
F334        F  0.83208941  0.38384341  0.19772360    -0.22900
F335        F  0.87929300  0.37050629  0.22870838    -0.24500
C336        C  0.87770461  0.32787423  0.38479303    -0.11300
C337        C  0.85157714  0.33882253  0.36251531     0.11300
C338        C  0.84403791  0.37470237  0.36014453    -0.03100
C339        C  0.86341579  0.39821599  0.38005212    -0.05900
C340        C  0.88965061  0.38721178  0.40236847    -0.16600
C341        C  0.89749289  0.35125281  0.40421196     0.02300
C342        C  0.83131919  0.31163182  0.34421640     0.12200
C343        C  0.81587658  0.38989612  0.33755362     0.62900
H344        H  0.85757052  0.42554639  0.37849483     0.12300
C345        C  0.92711449  0.33706261  0.42578706     0.55000
H346        H  0.88217121  0.30040461  0.38724187     0.08100
C347        C  0.84528455  0.29158325  0.31732180    -0.05800
C348        C  0.82352324  0.26741309  0.30086256    -0.06500
C349        C  0.78701177  0.26738863  0.30565399    -0.16100
C350        C  0.77490170  0.28268621  0.33723208    -0.01700
C351        C  0.79745398  0.30496744  0.35521908    -0.09200
C352        C  0.88200137  0.29770035  0.30418953     0.65100
H353        H  0.83466449  0.25071947  0.28160456     0.10500
C354        C  0.74059463  0.27457811  0.35499743     0.63500
H355        H  0.78836712  0.31877939  0.37761266     0.07900
F356        F  0.93375980  0.30265435  0.41871107    -0.19600
F357        F  0.91865749  0.33955674  0.46000601    -0.15800
F358        F  0.95744288  0.35517066  0.41926298    -0.19300
F359        F  0.79137803  0.40632717  0.35783183    -0.22700
F360        F  0.79889131  0.36576584  0.31772809    -0.24200
F361        F  0.83066071  0.41388734  0.31591537    -0.18200
F362        F  0.74058959  0.28504573  0.38881922    -0.20600
F363        F  0.73512647  0.23931608  0.35541249    -0.21800
F364        F  0.71352433  0.29183555  0.33954625    -0.19000
F365        F  0.88872810  0.27915082  0.27466654    -0.19100
F366        F  0.90607146  0.28796110  0.32841651    -0.22900
F367        F  0.88633524  0.33233563  0.29689760    -0.24500
C368        C  0.83192364  0.71585331  0.35015836    -0.11300
C369        C  0.85504996  0.69049542  0.33803709     0.11300
C370        C  0.86575090  0.69224167  0.30342522    -0.03100
C371        C  0.84939579  0.71632759  0.28154768    -0.05900
C372        C  0.81998171  0.73551142  0.29205259    -0.16600
C373        C  0.81661433  0.74012055  0.32794764     0.02300
C374        C  0.86937752  0.66392964  0.36216134     0.12200
C375        C  0.89395646  0.66843050  0.28957840     0.62900
H376        H  0.85923630  0.71928527  0.25608789     0.12300
C377        C  0.80151874  0.77257815  0.34377613     0.55000
H378        H  0.82633803  0.71732873  0.37721012     0.08100
C379        C  0.89649793  0.67141678  0.38547266    -0.05800
C380        C  0.91065351  0.64439580  0.40518731    -0.06500
C381        C  0.89853047  0.61019273  0.40284391    -0.16100
C382        C  0.87018376  0.60304580  0.38074612    -0.01700
C383        C  0.85613429  0.63010434  0.36079876    -0.09200
C384        C  0.91023454  0.70788735  0.38992917     0.65100
H385        H  0.93177389  0.64986794  0.42258521     0.10500
C386        C  0.85425493  0.56728881  0.37875372     0.63500
H387        H  0.83494284  0.62492889  0.34336703     0.07900
F388        F  0.79215814  0.79652974  0.31943088    -0.19600
F389        F  0.82652557  0.78768077  0.36428464    -0.15800
F390        F  0.77288882  0.76469471  0.36371479    -0.19300
F391        F  0.88321696  0.63449827  0.29187804    -0.22700
F392        F  0.92419952  0.67254326  0.30815028    -0.24200
F393        F  0.90151550  0.67517300  0.25573122    -0.18200
F394        F  0.84614979  0.55581234  0.41118277    -0.20600
F395        F  0.87751939  0.54464982  0.36362768    -0.21800
F396        F  0.82394967  0.56710049  0.35972882    -0.19000
F397        F  0.93923383  0.70883972  0.41078569    -0.19100
F398        F  0.88475509  0.72834156  0.40463746    -0.22900
F399        F  0.91955267  0.72165030  0.35876002    -0.24500
C400        C  0.84247047  0.71177298  0.15471798    -0.11300
C401        C  0.84609707  0.67671551  0.16317565     0.11300
C402        C  0.83455714  0.66531813  0.19544726    -0.03100
C403        C  0.81814645  0.68902667  0.21735585    -0.05900
C404        C  0.81458690  0.72427922  0.20963172    -0.16600
C405        C  0.82724615  0.73588848  0.17755191     0.02300
C406        C  0.86328102  0.65218922  0.13887647     0.12200
C407        C  0.83979192  0.62817457  0.20685935     0.62900
H408        H  0.80913117  0.68040799  0.24179300     0.12300
C409        C  0.82508341  0.77316025  0.16604963     0.55000
H410        H  0.85186166  0.72045130  0.13011764     0.08100
C411        C  0.84461376  0.63391892  0.11346611    -0.05800
C412        C  0.86152424  0.60693941  0.09531187    -0.06500
C413        C  0.89636505  0.59798328  0.10193222    -0.16100
C414        C  0.91521388  0.61768948  0.12614490    -0.01700
C415        C  0.89840285  0.64443461  0.14413828    -0.09200
C416        C  0.80723470  0.64346400  0.10546160     0.65100
H417        H  0.84776813  0.59283791  0.07566262     0.10500
C418        C  0.95320938  0.61054478  0.13270400     0.63500
H419        H  0.91230915  0.65898436  0.16338090     0.07900
F420        F  0.85755136  0.78394094  0.15509490    -0.19600
F421        F  0.81444041  0.79534840  0.19171767    -0.15800
F422        F  0.80195335  0.77562557  0.13921028    -0.19300
F423        F  0.87494949  0.62108597  0.20945631    -0.22700
F424        F  0.82512160  0.60570983  0.18355104    -0.24200
F425        F  0.82475740  0.62196368  0.23835349    -0.18200
F426        F  0.97172810  0.61388774  0.10257232    -0.20600
F427        F  0.95670065  0.57739605  0.14513392    -0.21800
F428        F  0.96726661  0.63312784  0.15636050    -0.19000
F429        F  0.79292497  0.62151766  0.08140902    -0.19100
F430        F  0.80609649  0.67669926  0.09281986    -0.22900
F431        F  0.78709632  0.64190037  0.13468443    -0.24500
C432        C  0.64536593  0.15315095  0.29665712    -0.11300
C433        C  0.66128435  0.14378767  0.32728079     0.11300
C434        C  0.69662047  0.15262940  0.33235275    -0.03100
C435        C  0.71356110  0.17370267  0.30805420    -0.05900
C436        C  0.69687545  0.18576428  0.27836713    -0.16600
C437        C  0.66189412  0.17440463  0.27234105     0.02300
C438        C  0.63992559  0.12474812  0.35325685     0.12200
C439        C  0.71631044  0.13980195  0.36330975     0.62900
H440        H  0.74015781  0.18176505  0.31252005     0.12300
C441        C  0.63932652  0.18422685  0.24233292     0.55000
H442        H  0.61873074  0.14492988  0.29241224     0.08100
C443        C  0.61637007  0.14195912  0.37565005    -0.05800
C444        C  0.59529507  0.12219155  0.39787501    -0.06500
C445        C  0.59710032  0.08604418  0.39841507    -0.16100
C446        C  0.62097263  0.06891012  0.37647179    -0.01700
C447        C  0.64170380  0.08857641  0.35396370    -0.09200
C448        C  0.61330307  0.18104814  0.37585096     0.65100
H449        H  0.57692491  0.13481008  0.41483301     0.10500
C450        C  0.62428723  0.02988324  0.37679722     0.63500
H451        H  0.65935573  0.07580735  0.33639926     0.07900
F452        F  0.60736076  0.19609245  0.25389197    -0.19600
F453        F  0.63367417  0.15531265  0.22242829    -0.15800
F454        F  0.65362904  0.20957282  0.22254603    -0.19300
F455        F  0.71659065  0.10413782  0.36341178    -0.22700
F456        F  0.70044294  0.15154880  0.39282419    -0.24200
F457        F  0.75053165  0.15098015  0.36335202    -0.18200
F458        F  0.59272077  0.01506346  0.36837033    -0.20600
F459        F  0.63397455  0.01900578  0.40894072    -0.21800
F460        F  0.64908731  0.01824293  0.35377006    -0.19000
F461        F  0.59006891  0.19261044  0.40045000    -0.19100
F462        F  0.60172621  0.19240377  0.34451007    -0.22900
F463        F  0.64537618  0.19566402  0.38255585    -0.24500
C464        C  0.69410639  0.13285844  0.17826116    -0.11300
C465        C  0.67667203  0.14837207  0.15078006     0.11300
C466        C  0.68186279  0.18399366  0.14477202    -0.03100
C467        C  0.70113966  0.20332750  0.16845391    -0.05900
C468        C  0.71588340  0.18868735  0.19798108    -0.16600
C469        C  0.71475287  0.15216360  0.20124488     0.02300
C470        C  0.65065057  0.12768810  0.13113007     0.12200
C471        C  0.66672843  0.20348451  0.11469093     0.62900
H472        H  0.70252282  0.23088555  0.16462066     0.12300
C473        C  0.73556460  0.13205532  0.22721335     0.55000
H474        H  0.69112469  0.10534604  0.18217620     0.08100
C475        C  0.66028577  0.10528901  0.10416991    -0.05800
C476        C  0.63396440  0.08767665  0.08618581    -0.06500
C477        C  0.59829012  0.09153569  0.09414456    -0.16100
C478        C  0.58868675  0.11473205  0.12073883    -0.01700
C479        C  0.61515996  0.13232284  0.13874118    -0.09200
C480        C  0.69820537  0.10037338  0.09418982     0.65100
H481        H  0.64134775  0.07017505  0.06585197     0.10500
C482        C  0.55086004  0.12169750  0.12978278     0.63500
H483        H  0.60836220  0.15016033  0.15900213     0.07900
F484        F  0.75538131  0.10738976  0.21047308    -0.19600
F485        F  0.71314190  0.11549141  0.24941009    -0.15800
F486        F  0.75807191  0.15265283  0.24561213    -0.19300
F487        F  0.64214907  0.22678853  0.12646661    -0.22700
F488        F  0.65125173  0.18234872  0.09071974    -0.24200
F489        F  0.69306738  0.22147412  0.09847158    -0.18200
F490        F  0.54747200  0.14853482  0.15296286    -0.20600
F491        F  0.53629189  0.09260133  0.14422487    -0.21800
F492        F  0.53255210  0.13057967  0.10078288    -0.19000
F493        F  0.70184809  0.07940636  0.06573071    -0.19100
F494        F  0.71609414  0.08527583  0.12077400    -0.22900
F495        F  0.71309390  0.13195089  0.08680642    -0.24500
C496        C  0.33219046  0.19023834  0.16296860    -0.11300
C497        C  0.31762386  0.15732340  0.16467167     0.11300
C498        C  0.29006762  0.15153956  0.18813884    -0.03100
C499        C  0.27742875  0.17953790  0.20795532    -0.05900
C500        C  0.29330809  0.21239987  0.20781945    -0.16600
C501        C  0.32203661  0.21732866  0.18499729     0.02300
C502        C  0.33548165  0.12986796  0.14391227     0.12200
C503        C  0.27337456  0.11660191  0.19383470     0.62900
H504        H  0.25580562  0.17509609  0.22521950     0.12300
C505        C  0.34529395  0.24875660  0.18598502     0.55000
H506        H  0.35345173  0.19386742  0.14512308     0.08100
C507        C  0.32752127  0.12347624  0.10925844    -0.05800
C508        C  0.35056600  0.10302831  0.08938960    -0.06500
C509        C  0.38071255  0.08770428  0.10326792    -0.16100
C510        C  0.38650858  0.09152379  0.13908568    -0.01700
C511        C  0.36440203  0.11344177  0.15827845    -0.09200
C512        C  0.29445121  0.13780221  0.09367555     0.65100
H513        H  0.34517569  0.09907847  0.06259716     0.10500
C514        C  0.41495950  0.07202530  0.15779745     0.63500
H515        H  0.36980958  0.11848280  0.18491970     0.07900
F516        F  0.32835603  0.27720289  0.17314837    -0.19600
F517        F  0.37528908  0.24414532  0.16681703    -0.15800
F518        F  0.35555138  0.25440896  0.21904829    -0.19300
F519        F  0.27249902  0.10960697  0.22840723    -0.22700
F520        F  0.29103072  0.08995278  0.17787407    -0.24200
F521        F  0.23962930  0.11732397  0.18169914    -0.18200
F522        F  0.41258534  0.07641825  0.19278932    -0.20600
F523        F  0.44736328  0.08367953  0.14766184    -0.21800
F524        F  0.41199461  0.03707131  0.15112452    -0.19000
F525        F  0.29099853  0.12825669  0.05980951    -0.19100
F526        F  0.29443878  0.17342198  0.09549139    -0.22900
F527        F  0.26595495  0.12529630  0.11134583    -0.24500
C528        C  0.29415577  0.15930472  0.33271705    -0.11300
C529        C  0.33015103  0.15443792  0.32825874     0.11300
C530        C  0.34689425  0.17086205  0.30046673    -0.03100
C531        C  0.32764277  0.19401243  0.28013289    -0.05900
C532        C  0.29190210  0.20036237  0.28554232    -0.16600
C533        C  0.27459436  0.18137303  0.31145734     0.02300
C534        C  0.34960181  0.13206537  0.35302183     0.12200
C535        C  0.38492127  0.16383455  0.29215112     0.62900
H536        H  0.34088088  0.20825353  0.26041920     0.12300
C537        C  0.23561254  0.18293227  0.31759923     0.55000
H538        H  0.28111618  0.14568784  0.35319064     0.08100
C539        C  0.36143879  0.14465348  0.38501023    -0.05800
C540        C  0.38005224  0.12225883  0.40689408    -0.06500
C541        C  0.38812353  0.08819356  0.39737611    -0.16100
C542        C  0.37622336  0.07564428  0.36536377    -0.01700
C543        C  0.35667170  0.09767756  0.34403936    -0.09200
C544        C  0.35506801  0.18187758  0.39556600     0.65100
H545        H  0.38933533  0.13150250  0.43130462     0.10500
C546        C  0.38413195  0.03905263  0.35366858     0.63500
H547        H  0.34731709  0.08843173  0.31965598     0.07900
F548        F  0.22918421  0.19704431  0.34943862    -0.19600
F549        F  0.22222554  0.14983089  0.31664421    -0.15800
F550        F  0.21813368  0.20209713  0.29343999    -0.19300
F551        F  0.38869217  0.12991063  0.28176585    -0.22700
F552        F  0.40544784  0.16952398  0.32049144    -0.24200
F553        F  0.39701682  0.18480149  0.26618776    -0.18200
F554        F  0.36656348  0.03067495  0.32401030    -0.20600
F555        F  0.37423691  0.01583241  0.37856776    -0.21800
F556        F  0.41940902  0.03560591  0.34737357    -0.19000
F557        F  0.36953714  0.18927919  0.42702769    -0.19100
F558        F  0.31970067  0.18824673  0.39757647    -0.22900
F559        F  0.36970844  0.20387630  0.37186514    -0.24500
C560        C  0.65457641  0.82497669  0.18940722    -0.11300
C561        C  0.67057592  0.84742048  0.16644404     0.11300
C562        C  0.70737717  0.85046836  0.16741558    -0.03100
C563        C  0.72689707  0.82839222  0.18912352    -0.05900
C564        C  0.71095044  0.80539608  0.21222233    -0.16600
C565        C  0.67354026  0.80431479  0.21240268     0.02300
C566        C  0.64733423  0.86802152  0.14303934     0.12200
C567        C  0.72566494  0.87793652  0.14660677     0.62900
H568        H  0.75503131  0.82965844  0.18885150     0.12300
C569        C  0.65095894  0.78200490  0.23501857     0.55000
H570        H  0.62635710  0.82346467  0.18926658     0.08100
C571        C  0.64087920  0.85903377  0.10836417    -0.05800
C572        C  0.61642560  0.87842486  0.08941559    -0.06500
C573        C  0.59693291  0.90558055  0.10382128    -0.16100
C574        C  0.60275081  0.91407659  0.13867977    -0.01700
C575        C  0.62788400  0.89524898  0.15745353    -0.09200
C576        C  0.65796809  0.82890099  0.08990534     0.65100
H577        H  0.61202761  0.87175111  0.06290509     0.10500
C578        C  0.58306392  0.94327941  0.15607179     0.63500
H579        H  0.63225256  0.90131660  0.18406703     0.07900
F580        F  0.62973398  0.76145511  0.21502898    -0.19600
F581        F  0.63023851  0.80296089  0.25530871    -0.15800
F582        F  0.66952256  0.76085715  0.25580495    -0.19300
F583        F  0.71281100  0.91005488  0.15567447    -0.22700
F584        F  0.71999094  0.87260805  0.11224969    -0.24200
F585        F  0.76124967  0.87789260  0.15211318    -0.18200
F586        F  0.54814867  0.93493368  0.15851148    -0.20600
F587        F  0.58682885  0.97337113  0.13756233    -0.21800
F588        F  0.59520275  0.94949704  0.18871014    -0.19000
F589        F  0.67452928  0.84085842  0.06089059    -0.19100
F590        F  0.63257626  0.80557672  0.08029097    -0.22900
F591        F  0.68222440  0.81160294  0.10933588    -0.24500
C592        C  0.61110775  0.86418124  0.34789154    -0.11300
C593        C  0.64660690  0.86427097  0.35609641     0.11300
C594        C  0.65804187  0.88253555  0.38525933    -0.03100
C595        C  0.63321613  0.90002209  0.40542155    -0.05900
C596        C  0.59740796  0.89966560  0.39764850    -0.16600
C597        C  0.58602927  0.88079518  0.36855407     0.02300
C598        C  0.67068811  0.84288652  0.33489795     0.12200
C599        C  0.69625726  0.88329100  0.39522987     0.62900
H600        H  0.64186760  0.91443540  0.42748637     0.12300
C601        C  0.54775074  0.87695919  0.35961770     0.55000
H602        H  0.60312716  0.85017496  0.32529325     0.08100
C603        C  0.67203690  0.80663423  0.33845617    -0.05800
C604        C  0.69431287  0.78763778  0.31697226    -0.06500
C605        C  0.71569925  0.80345395  0.29226956    -0.16100
C606        C  0.71652871  0.84011497  0.29104132    -0.01700
C607        C  0.69262673  0.85902793  0.31113834    -0.09200
C608        C  0.64953134  0.78792761  0.36446437     0.65100
H609        H  0.69372718  0.75979717  0.31835144     0.08400
C610        C  0.74321234  0.86080741  0.27120405     0.63500
H611        H  0.69191534  0.88690851  0.30909562     0.07900
F612        F  0.52924470  0.86599823  0.38789451    -0.19600
F613        F  0.54267102  0.85290061  0.33393572    -0.15800
F614        F  0.53461203  0.90815191  0.34846847    -0.19300
F615        F  0.71553493  0.89917908  0.36998713    -0.22700
F616        F  0.70847477  0.85004266  0.39966581    -0.24200
F617        F  0.70154813  0.90126541  0.42533415    -0.18200
F618        F  0.72670338  0.87896817  0.24564058    -0.20600
F619        F  0.76923974  0.84062355  0.25710255    -0.21800
F620        F  0.75902333  0.88417055  0.29294209    -0.19000
F621        F  0.65758899  0.75315031  0.36619053    -0.19100
F622        F  0.61482997  0.79087439  0.35572046    -0.22900
F623        F  0.65441852  0.80200232  0.39653164    -0.24500
C624        C  0.36795797  0.84096739  0.37532836    -0.11300
C625        C  0.34616111  0.85710874  0.35137225     0.11300
C626        C  0.34505098  0.89374983  0.35041322    -0.03100
C627        C  0.36580373  0.91282783  0.37346609    -0.05900
C628        C  0.38805896  0.89665522  0.39683564    -0.16600
C629        C  0.38918501  0.86019321  0.39788377     0.02300
C630        C  0.32528447  0.83489797  0.32749793     0.12200
C631        C  0.32080961  0.91328253  0.32677740     0.62900
H632        H  0.36468382  0.94076490  0.37338673     0.12300
C633        C  0.41304225  0.84195919  0.42272125     0.55000
H634        H  0.36848612  0.81303778  0.37594063     0.08100
C635        C  0.33956337  0.82150902  0.29682534    -0.05800
C636        C  0.31857857  0.80079318  0.27547939    -0.06500
C637        C  0.28407987  0.79180475  0.28414188    -0.16100
C638        C  0.26952404  0.80631469  0.31443320    -0.01700
C639        C  0.29050970  0.82729792  0.33560471    -0.09200
C640        C  0.37730670  0.82816444  0.28727628     0.65100
H641        H  0.33022425  0.78895442  0.25320311     0.10500
C642        C  0.23200787  0.80126872  0.32561348     0.63500
H643        H  0.27954546  0.83796168  0.35887685     0.07900
F644        F  0.44719432  0.85130104  0.41633679    -0.19600
F645        F  0.41058307  0.80643514  0.41996772    -0.15800
F646        F  0.40433181  0.85131742  0.45573197    -0.19300
F647        F  0.28864025  0.91677382  0.34233080    -0.22700
F648        F  0.31665193  0.89649134  0.29591196    -0.24200
F649        F  0.33378556  0.94582987  0.31984261    -0.18200
F650        F  0.23133188  0.78255282  0.35556147    -0.20600
F651        F  0.21193173  0.78448228  0.30164118    -0.21800
F652        F  0.21687004  0.83315861  0.33152025    -0.19000
F653        F  0.38594668  0.81365556  0.25606068    -0.19100
F654        F  0.39896206  0.81406403  0.31164501    -0.22900
F655        F  0.38326612  0.86326954  0.28537842    -0.24500
C656        C  0.37519280  0.86546567  0.15204639    -0.11300
C657        C  0.34193805  0.85658491  0.14044810     0.11300
C658        C  0.33041625  0.86939339  0.10868237    -0.03100
C659        C  0.35314693  0.89017286  0.08918781    -0.05900
C660        C  0.38691489  0.89887676  0.10039942    -0.16600
C661        C  0.39822272  0.88591593  0.13260888     0.02300
C662        C  0.32092328  0.83201515  0.16145055     0.12200
C663        C  0.29405327  0.86150180  0.09568763     0.62900
H664        H  0.34434493  0.90009390  0.06494910     0.12300
C665        C  0.43435850  0.89287415  0.14682691     0.55000
H666        H  0.38318236  0.85548243  0.17656528     0.08100
C667        C  0.32763533  0.79612992  0.16055275    -0.05800
C668        C  0.30865331  0.77441861  0.18238956    -0.06500
C669        C  0.28257480  0.78678857  0.20469063    -0.16100
C670        C  0.27432817  0.82253832  0.20385619    -0.01700
C671        C  0.29471453  0.84471538  0.18331411    -0.09200
C672        C  0.35491533  0.78068699  0.13667457     0.65100
H673        H  0.31479450  0.74734187  0.18244741     0.10500
C674        C  0.24372493  0.83828786  0.22287760     0.63500
H675        H  0.28955601  0.87221666  0.18370920     0.07900
F676        F  0.45943268  0.88200393  0.12374468    -0.19600
F677        F  0.44019374  0.87545619  0.17703661    -0.15800
F678        F  0.43818927  0.92772481  0.15348318    -0.19300
F679        F  0.26963495  0.87582496  0.11751459    -0.22700
F680        F  0.28888248  0.82625681  0.09404447    -0.24200
F681        F  0.28856707  0.87485370  0.06345727    -0.18200
F682        F  0.25574733  0.85695037  0.25051199    -0.20600
F683        F  0.22029638  0.81375449  0.23406961    -0.21800
F684        F  0.22584193  0.86037770  0.20148964    -0.19000
F685        F  0.35597224  0.74503035  0.13861355    -0.19100
F686        F  0.38757007  0.79300073  0.14492036    -0.22900
F687        F  0.34749059  0.78940652  0.10334542    -0.24500
C688        C  0.34227954  0.57729989  0.36890588    -0.11300
C689        C  0.35827607  0.59824966  0.34443186     0.11300
C690        C  0.39506968  0.59963815  0.34223859    -0.03100
C691        C  0.41458600  0.58139908  0.36619866    -0.05900
C692        C  0.39875538  0.56305755  0.39281056    -0.16600
C693        C  0.36193698  0.55959862  0.39352280     0.02300
C694        C  0.33623232  0.62299684  0.32598315     0.12200
C695        C  0.41533238  0.62105721  0.31651315     0.62900
H696        H  0.44276244  0.58329863  0.36527169     0.12300
C697        C  0.34320343  0.53947203  0.42116873     0.55000
H698        H  0.31409224  0.57690259  0.36996706     0.08100
C699        C  0.31986052  0.61482391  0.29499540    -0.05800
C700        C  0.30317446  0.64145505  0.27720029    -0.06500
C701        C  0.30282462  0.67601052  0.28904096    -0.16100
C702        C  0.32056660  0.68384090  0.31991736    -0.01700
C703        C  0.33553544  0.65677491  0.33845654    -0.09200
C704        C  0.32029898  0.57825122  0.28092197     0.65100
H705        H  0.29075116  0.63526771  0.25335548     0.10500
C706        C  0.32848712  0.72026952  0.33151066     0.63500
H707        H  0.34888366  0.66210473  0.36220302     0.07900
F708        F  0.30740359  0.54039438  0.41717042    -0.19600
F709        F  0.35083971  0.55337554  0.45279744    -0.15800
F710        F  0.35351638  0.50528228  0.42003198    -0.19300
F711        F  0.39450720  0.63956257  0.29453102    -0.22700
F712        F  0.43621210  0.59941799  0.29715148    -0.24200
F713        F  0.43635554  0.64419681  0.33374224    -0.18200
F714        F  0.30042913  0.73426400  0.34874619    -0.20600
F715        F  0.33692913  0.74005649  0.30376107    -0.21800
F716        F  0.35689979  0.72126642  0.35315044    -0.19000
F717        F  0.30510786  0.57625017  0.24900701    -0.19100
F718        F  0.30212995  0.55681628  0.30271201    -0.22900
F719        F  0.35419539  0.56645070  0.27808431    -0.24500
C720        C  0.42178508  0.66202489  0.14411917    -0.11300
C721        C  0.40831633  0.64394974  0.17190176     0.11300
C722        C  0.41637828  0.60871327  0.17652451    -0.03100
C723        C  0.43469680  0.59161513  0.15078009    -0.05900
C724        C  0.44485788  0.60881044  0.12108403    -0.16600
C725        C  0.43980372  0.64500054  0.11802322     0.02300
C726        C  0.37752402  0.65926227  0.18781018     0.12200
C727        C  0.40413522  0.58765212  0.20673658     0.62900
H728        H  0.43932007  0.56409725  0.15301857     0.12300
C729        C  0.45006325  0.66525227  0.08634964     0.55000
H730        H  0.41460657  0.68890306  0.14125392     0.08100
C731        C  0.37956654  0.68468404  0.21325480    -0.05800
C732        C  0.34845517  0.69854248  0.22577636    -0.06500
C733        C  0.31576608  0.68745358  0.21379036    -0.16100
C734        C  0.31414218  0.66339896  0.18635436    -0.01700
C735        C  0.34542459  0.64940833  0.17429169    -0.09200
C736        C  0.41434842  0.69660903  0.22714008     0.65100
H737        H  0.34938496  0.71823912  0.24531094     0.10500
C738        C  0.28049618  0.65119146  0.17015785     0.63500
H739        H  0.34536086  0.63068052  0.15370996     0.07900
F740        F  0.48581713  0.66475755  0.08238275    -0.19600
F741        F  0.43983101  0.69947616  0.08839904    -0.15800
F742        F  0.43445126  0.65108768  0.05782039    -0.19300
F743        F  0.38036672  0.56324213  0.19585579    -0.22700
F744        F  0.38871462  0.60769754  0.23173453    -0.24200
F745        F  0.43234182  0.57092865  0.22108127    -0.18200
F746        F  0.26460776  0.67761399  0.15262252    -0.20600
F747        F  0.25867538  0.63909456  0.19501719    -0.21800
F748        F  0.28589261  0.62453625  0.14710439    -0.19000
F749        F  0.41031370  0.72001476  0.25360509    -0.19100
F750        F  0.43332744  0.71231937  0.20156007    -0.22900
F751        F  0.43289307  0.66860570  0.23919410    -0.24500
C752        C  0.68654663  0.65630091  0.32618154    -0.11300
C753        C  0.65507859  0.65048225  0.30934547     0.11300
C754        C  0.64825561  0.66629771  0.27800225    -0.03100
C755        C  0.67315417  0.68889405  0.26512763    -0.05900
C756        C  0.70620583  0.69334877  0.28034270    -0.16600
C757        C  0.71338694  0.67527016  0.31105226     0.02300
C758        C  0.62850877  0.63051244  0.32716047     0.12200
C759        C  0.61483411  0.65953825  0.25834989     0.62900
H760        H  0.66648254  0.70285013  0.24247529     0.12300
C761        C  0.74869224  0.67279528  0.32796583     0.55000
H762        H  0.69073768  0.64432190  0.35079231     0.08100
C763        C  0.63046100  0.59427857  0.33003371    -0.05800
C764        C  0.60690672  0.57803031  0.35187794    -0.06500
C765        C  0.58362227  0.59707740  0.37223348    -0.16100
C766        C  0.58109235  0.63340989  0.36849715    -0.01700
C767        C  0.60346270  0.64937930  0.34526153    -0.09200
C768        C  0.65792696  0.57300304  0.31131950     0.65100
H769        H  0.60814369  0.55030007  0.35505814     0.10500
C770        C  0.55729460  0.65578849  0.39042481     0.63500
H771        H  0.60333329  0.67720413  0.34264712     0.07900
F772        F  0.75448998  0.63937975  0.33902158    -0.19600
F773        F  0.74964726  0.69466004  0.35584446    -0.15800
F774        F  0.77539219  0.68052549  0.30596285    -0.19300
F775        F  0.58660779  0.67257528  0.27614390    -0.22700
F776        F  0.61035943  0.62447211  0.25368509    -0.24200
F777        F  0.61541587  0.67472113  0.22645901    -0.18200
F778        F  0.56020599  0.69046246  0.38250462    -0.20600
F779        F  0.56589193  0.65209174  0.42444373    -0.21800
F780        F  0.52298363  0.64633583  0.38539189    -0.19000
F781        F  0.65544056  0.53824649  0.31900692    -0.19100
F782        F  0.69094128  0.58371612  0.32033708    -0.22900
F783        F  0.65393907  0.57661325  0.27655236    -0.24500
C784        C  0.69442787  0.64192666  0.18074487    -0.11300
C785        C  0.67446576  0.65939828  0.15687777     0.11300
C786        C  0.67426019  0.69570912  0.15589136    -0.03100
C787        C  0.69565460  0.71352878  0.17869942    -0.05900
C788        C  0.71643380  0.69625771  0.20274052    -0.16600
C789        C  0.71592868  0.65937399  0.20357371     0.02300
C790        C  0.65390794  0.63843154  0.13335103     0.12200
C791        C  0.65152163  0.71544188  0.13101470     0.62900
H792        H  0.69522074  0.74139276  0.17866380     0.12300
C793        C  0.73653432  0.63600638  0.22690278     0.55000
H794        H  0.69337419  0.61393816  0.18126472     0.08100
C795        C  0.66921586  0.62292389  0.10434050    -0.05800
C796        C  0.64798841  0.60361465  0.08268437    -0.06500
C797        C  0.61248600  0.59944377  0.08956798    -0.16100
C798        C  0.59757598  0.61330700  0.11980438    -0.01700
C799        C  0.61895899  0.63258673  0.14145909    -0.09200
C800        C  0.70782925  0.62618534  0.09675822     0.65100
H801        H  0.65884602  0.59216216  0.05975923     0.10500
C802        C  0.55972151  0.60750316  0.12961327     0.63500
H803        H  0.60851440  0.64381299  0.16466292     0.07900
F804        F  0.75679256  0.61400072  0.20733636    -0.19600
F805        F  0.71384874  0.61641697  0.24625847    -0.15800
F806        F  0.75802450  0.65328092  0.24861450    -0.19300
F807        F  0.61696664  0.70665997  0.13562740    -0.22700
F808        F  0.66135245  0.70758465  0.09796059    -0.24200
F809        F  0.65427781  0.75075215  0.13552632    -0.18200
F810        F  0.55251701  0.61916337  0.16230954    -0.20600
F811        F  0.55204558  0.57267101  0.12828318    -0.21800
F812        F  0.53827042  0.62517593  0.10759193    -0.19000
F813        F  0.71659228  0.61168695  0.06558682    -0.19100
F814        F  0.72647099  0.60925630  0.12169893    -0.22900
F815        F  0.71743664  0.66054129  0.09617519    -0.24500
C816        C  0.63897504  0.32950418  0.30483789    -0.11300
C817        C  0.65740013  0.36007449  0.30956823     0.11300
C818        C  0.69029198  0.36450694  0.29422966    -0.03100
C819        C  0.70483588  0.33663907  0.27618679    -0.05900
C820        C  0.68707013  0.30520540  0.27227985    -0.16600
C821        C  0.65320765  0.30173185  0.28660750     0.02300
C822        C  0.64355896  0.38404364  0.33540198     0.12200
C823        C  0.70982247  0.39833925  0.29739905     0.62900
H824        H  0.73121426  0.33844298  0.26706628     0.12300
C825        C  0.63201099  0.26915891  0.28357536     0.55000
H826        H  0.61381830  0.32710870  0.31718837     0.08100
C827        C  0.61386493  0.40491349  0.32965213    -0.05800
C828        C  0.59759327  0.42056840  0.35781899    -0.06500
C829        C  0.61033038  0.41588975  0.39088340    -0.16100
C830        C  0.64011511  0.39538849  0.39660189    -0.01700
C831        C  0.65632180  0.37969424  0.36855209    -0.09200
C832        C  0.59761837  0.40995638  0.29481529     0.65100
H833        H  0.57464745  0.43643684  0.35404471     0.10500
C834        C  0.65422099  0.38976624  0.43226366     0.63500
H835        H  0.67836365  0.36264976  0.37237078     0.07900
F836        F  0.62635943  0.26223135  0.24971868    -0.19600
F837        F  0.59969793  0.27203454  0.29911120    -0.15800
F838        F  0.64935137  0.24227078  0.29885331    -0.19300
F839        F  0.71846172  0.40438570  0.33105904    -0.22700
F840        F  0.68900230  0.42502177  0.28594884    -0.24200
F841        F  0.74017451  0.39823059  0.27825416    -0.18200
F842        F  0.68293535  0.36811224  0.43222062    -0.20600
F843        F  0.62880629  0.37502066  0.45255141    -0.21800
F844        F  0.66403559  0.42105107  0.44626215    -0.19000
F845        F  0.58923152  0.44437114  0.29028785    -0.19100
F846        F  0.56751951  0.39054854  0.29274033    -0.22900
F847        F  0.61965539  0.40036289  0.26852672    -0.24500
C848        C  0.69853146  0.34941996  0.16064297    -0.11300
C849        C  0.66363457  0.34290228  0.15441683     0.11300
C850        C  0.64767205  0.31286864  0.16710386    -0.03100
C851        C  0.66733061  0.29122895  0.18819075    -0.05900
C852        C  0.70195272  0.29881506  0.19668316    -0.16600
C853        C  0.71841367  0.32746631  0.18082807     0.02300
C854        C  0.64611905  0.36714787  0.13180510     0.12200
C855        C  0.61022465  0.30411108  0.15861750     0.62900
H856        H  0.65597057  0.26787146  0.19780927     0.12300
C857        C  0.75644258  0.33534604  0.18420299     0.55000
H858        H  0.71002382  0.37212353  0.14916156     0.08100
C859        C  0.63507926  0.40031104  0.14281727    -0.05800
C860        C  0.62272817  0.42337678  0.11829589    -0.06500
C861        C  0.62146522  0.41406302  0.08388690    -0.16100
C862        C  0.63441874  0.38183790  0.07271457    -0.01700
C863        C  0.64678878  0.35880759  0.09710270    -0.09200
C864        C  0.63565110  0.41271300  0.17960940     0.65100
H865        H  0.61239005  0.44820942  0.12625672     0.10500
C866        C  0.63530363  0.37204002  0.03518424     0.63500
H867        H  0.65731705  0.33402711  0.08932597     0.07900
F868        F  0.76323444  0.34356603  0.21750619    -0.19600
F869        F  0.76679604  0.36311703  0.16451314    -0.15800
F870        F  0.77531386  0.30712443  0.17343406    -0.19300
F871        F  0.60680590  0.29946226  0.12383407    -0.22700
F872        F  0.58862819  0.33072169  0.16908363    -0.24200
F873        F  0.59944445  0.27414028  0.17456345    -0.18200
F874        F  0.65353441  0.39680046  0.01720797    -0.20600
F875        F  0.60185199  0.36983991  0.02248264    -0.21800
F876        F  0.65146023  0.34050409  0.02983907    -0.19000
F877        F  0.60292212  0.42465337  0.18869784    -0.19100
F878        F  0.65914575  0.43956570  0.18255651    -0.22900
F879        F  0.64490188  0.38728506  0.20245577    -0.24500
C880        C  0.40665878  0.32819926  0.40767501    -0.11300
C881        C  0.39717231  0.34059355  0.37550809     0.11300
C882        C  0.40569962  0.37473460  0.36584249    -0.03100
C883        C  0.42252610  0.39592355  0.38949306    -0.05900
C884        C  0.43163854  0.38368100  0.42170297    -0.16600
C885        C  0.42385781  0.34939367  0.43124677     0.02300
C886        C  0.37103253  0.32090972  0.35648081     0.12200
C887        C  0.39515767  0.39069243  0.33210104     0.62900
H888        H  0.42832405  0.42246588  0.38290222     0.12300
C889        C  0.43126524  0.33624875  0.46693492     0.55000
H890        H  0.39842767  0.30253702  0.41493714     0.08100
C891        C  0.37907542  0.29216953  0.33574547    -0.05800
C892        C  0.35250670  0.27891434  0.31483935    -0.06500
C893        C  0.31924783  0.29409208  0.31475338    -0.16100
C894        C  0.30961726  0.31388660  0.34397818    -0.01700
C895        C  0.33647721  0.33119678  0.36071477    -0.09200
C896        C  0.41526028  0.27651012  0.33530440     0.65100
H897        H  0.35808784  0.25832731  0.29703921     0.10500
C898        C  0.28027843  0.30306464  0.36790869     0.63500
H899        H  0.33047765  0.35003094  0.38038909     0.07900
F900        F  0.46672933  0.33611791  0.47279400    -0.19600
F901        F  0.41908278  0.30299402  0.47162254    -0.15800
F902        F  0.41509016  0.35741303  0.49067447    -0.19300
F903        F  0.36722966  0.41262682  0.33750666    -0.22700
F904        F  0.38592025  0.36634677  0.30798010    -0.24200
F905        F  0.42262723  0.40950126  0.31888397    -0.18200
F906        F  0.28956779  0.27241477  0.38341675    -0.20600
F907        F  0.24919839  0.29828632  0.35186997    -0.21800
F908        F  0.27461082  0.32750928  0.39321021    -0.19000
F909        F  0.41843181  0.25109067  0.31060476    -0.19100
F910        F  0.42214024  0.26188282  0.36664878    -0.22900
F911        F  0.43985703  0.30169391  0.32887619    -0.24500
C912        C  0.34239333  0.36856903  0.19629934    -0.11300
C913        C  0.37753424  0.36309077  0.20255260     0.11300
C914        C  0.38757490  0.34016147  0.22836408    -0.03100
C915        C  0.36158794  0.32032671  0.24439350    -0.05900
C916        C  0.32568014  0.32382446  0.23732918    -0.16600
C917        C  0.31628028  0.35041554  0.21365145     0.02300
C918        C  0.40265792  0.37935145  0.17890056     0.12200
C919        C  0.42559664  0.33672604  0.23840679     0.62900
H920        H  0.37043072  0.29957426  0.26047105     0.12300
C921        C  0.27947980  0.36093574  0.20526299     0.55000
H922        H  0.33537883  0.38684443  0.17651230     0.08100
C923        C  0.40993148  0.36417209  0.14674832    -0.05800
C924        C  0.42947820  0.38290192  0.12300048    -0.06500
C925        C  0.44048883  0.41659325  0.12990249    -0.16100
C926        C  0.43457119  0.43134855  0.16246834    -0.01700
C927        C  0.41571777  0.41220418  0.18674945    -0.09200
C928        C  0.39561875  0.32902990  0.13692752     0.65100
H929        H  0.43428805  0.37222093  0.09785863     0.10500
C930        C  0.44821519  0.46695760  0.17137512     0.63500
H931        H  0.40965130  0.42331154  0.21144477     0.07900
F932        F  0.27761992  0.39576955  0.19759065    -0.19600
F933        F  0.25838332  0.35603726  0.23272763    -0.15800
F934        F  0.26752500  0.34238753  0.17753901    -0.19300
F935        F  0.43720327  0.36788270  0.25132275    -0.22700
F936        F  0.44585280  0.32785570  0.21055101    -0.24200
F937        F  0.43032253  0.31178959  0.26301778    -0.18200
F938        F  0.43120991  0.49165096  0.15228631    -0.20600
F939        F  0.48355767  0.46846529  0.16457263    -0.21800
F940        F  0.44317938  0.47477089  0.20550152    -0.19000
F941        F  0.40772425  0.31813277  0.10539762    -0.19100
F942        F  0.35969168  0.33040010  0.13551632    -0.22900
F943        F  0.40559022  0.30486963  0.16071892    -0.24500
N944        N  0.59314474  0.48486348  0.53267675    -0.05600
N945        N  0.61751799  0.48924914  0.55587299    -0.57700
N946        N  0.53635082  0.44222234  0.95671588    -0.05200
N947        N  0.53516284  0.41965402  0.93148715    -0.59800
N948        N  0.55966418  0.46613703  0.95023112    -0.04800
N949        N  0.57468774  0.46047576  0.92057006    -0.57700
N950        N  0.57355356  0.45821375  0.54013319    -0.04500
N951        N  0.58382899  0.44393551  0.56873917    -0.60200
C952        C  0.61090686  0.46382014  0.57838822     0.96600
C953        C  0.55921849  0.43142076  0.90911325     0.96400
N954        N  0.43384919  0.46449783  0.98340248    -0.05700
N955        N  0.40696421  0.45875224  0.96335514    -0.58300
N956        N  0.49496705  0.44471685  0.55255981    -0.03900
N957        N  0.49546752  0.42438480  0.57941675    -0.59500
N958        N  0.46735154  0.46480776  0.55329386    -0.05800
N959        N  0.44865805  0.45879468  0.58081991    -0.58500
N960        N  0.45807977  0.44112916  0.97825016    -0.03500
N961        N  0.44842945  0.41889820  0.95480470    -0.59600
Mn962      Mn  0.52971503  0.44321236  0.50833670     1.18400
C963        C  0.41645167  0.43002877  0.94600310     0.98700
C964        C  0.46680163  0.43398925  0.59712064     0.99400
N965        N  0.56044598  0.54663283  0.94715273    -0.05800
N966        N  0.57979279  0.55440151  0.92044917    -0.62100
N967        N  0.55060978  0.58168374  0.52230342    -0.04600
N968        N  0.55409549  0.60592805  0.54577685    -0.62800
N969        N  0.57839230  0.56191067  0.52134163    -0.05300
N970        N  0.60147929  0.57216603  0.54381515    -0.62400
N971        N  0.53587108  0.56985033  0.95138868    -0.04200
N972        N  0.53803015  0.59392239  0.92785686    -0.63100
Mn973      Mn  0.57081844  0.50750373  0.98629766     1.10700
C974        C  0.56543274  0.58393008  0.90861065     0.99900
C975        C  0.58592072  0.59939742  0.55895732     1.00000
N976        N  0.45227131  0.54369299  0.54172506    -0.05300
N977        N  0.43312082  0.55098438  0.56885682    -0.60700
N978        N  0.45672995  0.56786210  0.97068796    -0.04600
N979        N  0.44626992  0.58650805  0.94475496    -0.57400
N980        N  0.43333843  0.54445443  0.97846819    -0.05900
N981        N  0.40644033  0.54655805  0.95780111    -0.60300
N982        N  0.47201625  0.57015055  0.53397182    -0.04900
N983        N  0.46702184  0.59577400  0.55548319    -0.57400
Mn984      Mn  0.45316435  0.49679206  0.50957660     1.20200
Mn985      Mn  0.50559905  0.57199811  0.99820865     1.10100
Cl986      Cl  0.51751828  0.50670408  0.49900084    -0.85400
C987        C  0.44259771  0.58371257  0.57702005     0.96900
C988        C  0.41484119  0.57302391  0.93706668     0.96700
N989        N  0.42547982  0.95092372  0.54118491    -0.05600
N990        N  0.40004480  0.92940030  0.54926317    -0.57700
N991        N  0.44883482  0.02857528  0.56748157    -0.05200
N992        N  0.43959146  0.04791829  0.59384687    -0.59800
N993        N  0.42452917  0.02964078  0.54384279    -0.04800
N994        N  0.39849120  0.04966920  0.55411179    -0.57700
N995        N  0.45002761  0.94996225  0.56464324    -0.04500
N996        N  0.44130362  0.92790053  0.58889481    -0.60200
C997        C  0.41012382  0.91485770  0.57908457     0.96600
C998        C  0.40819223  0.06126561  0.58540404     0.96400
N999        N  0.55688982  0.03123540  0.54283091    -0.05700
N1000       N  0.58242496  0.05199509  0.55231152    -0.58300
N1001       N  0.53606785  0.95199464  0.56589550    -0.03900
N1002       N  0.54840725  0.93383261  0.59188347    -0.59500
N1003       N  0.55949612  0.95295417  0.54122886    -0.05800
N1004       N  0.58752412  0.93510243  0.54978504    -0.58500
N1005       N  0.53263748  0.03015063  0.56665164    -0.03500
N1006       N  0.54130272  0.05023955  0.59250646    -0.59600
Mn1007     Mn  0.49175269  0.98993540  0.56647717     1.18400
C1008       C  0.57239034  0.06380640  0.58339977     0.98700
C1009       C  0.58033979  0.92296520  0.58125301     0.99400
N1010       N  0.42311185  0.03518796  0.95503754    -0.05800
N1011       N  0.39927864  0.05839668  0.94632728    -0.62100
N1012       N  0.44630078  0.95428556  0.93279643    -0.04600
N1013       N  0.43749004  0.93281088  0.90792632    -0.62800
N1014       N  0.42139581  0.95576094  0.95599210    -0.05300
N1015       N  0.39521975  0.93543181  0.94698365    -0.62400
N1016       N  0.44774368  0.03362868  0.93154451    -0.04200
N1017       N  0.44102618  0.05569533  0.90677676    -0.63100
Mn1018     Mn  0.42433530  0.99165656  0.50106457     1.10700
C1019       C  0.41073251  0.07111230  0.91602365     0.99900
C1020       C  0.40585748  0.92062723  0.91732615     1.00000
N1021       N  0.55431551  0.95354961  0.95822738    -0.05300
N1022       N  0.58006952  0.93213440  0.95100039    -0.60700
N1023       N  0.53148719  0.03155598  0.93119257    -0.04600
N1024       N  0.54079445  0.05156297  0.90549426    -0.57400
N1025       N  0.55546283  0.03221403  0.95511148    -0.05900
N1026       N  0.58132900  0.05282980  0.94609638    -0.60300
N1027       N  0.53072272  0.95285058  0.93392575    -0.04900
N1028       N  0.54045617  0.93091941  0.90971475    -0.57400
Mn1029     Mn  0.55787654  0.99277360  0.50098007     1.20200
Mn1030     Mn  0.48898086  0.99295825  0.93194238     1.10100
Cl1031     Cl  0.49123989  0.99182387  0.50117435    -0.85400
C1032       C  0.57118146  0.91773888  0.92079277     0.96900
C1033       C  0.57190062  0.06479682  0.91505772     0.96700
N1034       N  0.95481095  0.56048293  0.54378636    -0.05600
N1035       N  0.93818751  0.58811180  0.55505759    -0.57700
N1036       N  0.03316520  0.53267578  0.56332530    -0.05200
N1037       N  0.05257034  0.54216385  0.58952582    -0.59800
N1038       N  0.03305998  0.55704555  0.53988933    -0.04800
N1039       N  0.05245309  0.58335279  0.54991257    -0.57700
N1040       N  0.95502108  0.53635730  0.56742773    -0.04500
N1041       N  0.93857422  0.54751025  0.59505381    -0.60200
C1042       C  0.92775670  0.57971334  0.58694127     0.96600
C1043       C  0.06476224  0.57355291  0.58063049     0.96400
N1044       N  0.02721098  0.42579774  0.53641023    -0.05700
N1045       N  0.04729049  0.39885313  0.54279421    -0.58300
N1046       N  0.95069075  0.45303484  0.56585847    -0.03900
N1047       N  0.93035894  0.44445751  0.59177817    -0.59500
N1048       N  0.94803697  0.43000034  0.54126707    -0.05800
N1049       N  0.92570480  0.40559811  0.54984489    -0.58500
N1050       N  0.03012289  0.44902943  0.56084275    -0.03500
N1051       N  0.05249561  0.43821251  0.58413894    -0.59600
Mn1052     Mn  0.99230563  0.49262966  0.56466204     1.18400
C1053       C  0.06309168  0.40686171  0.57254139     0.98700
C1054       C  0.91436307  0.41523827  0.58110948     0.99400
N1055       N  0.02922104  0.55401270  0.96156541    -0.05800
N1056       N  0.04999044  0.57982780  0.95334014    -0.62100
N1057       N  0.95010797  0.53033198  0.93672338    -0.04600
N1058       N  0.93065798  0.54048712  0.91070285    -0.62800
N1059       N  0.94997884  0.55423163  0.96073919    -0.05300
N1060       N  0.93050563  0.58077221  0.95140361    -0.62400
N1061       N  0.02964436  0.53023722  0.93753142    -0.04200
N1062       N  0.05077456  0.53974733  0.91259080    -0.63100
Mn1063     Mn  0.99181394  0.55955292  0.50052384     1.10700
C1064       C  0.06364074  0.57070321  0.92272545     0.99900
C1065       C  0.91787013  0.57166796  0.92049816     1.00000
N1066       N  0.95105856  0.42285462  0.96274168    -0.05300
N1067       N  0.92926659  0.39767945  0.95520182    -0.60700
N1068       N  0.03043860  0.44658853  0.93764012    -0.04600
N1069       N  0.05216643  0.43766955  0.91276271    -0.57400
N1070       N  0.03069323  0.42294034  0.96174608    -0.05900
N1071       N  0.05255729  0.39773482  0.95362606    -0.60300
N1072       N  0.95065664  0.44642510  0.93855657    -0.04900
N1073       N  0.92855407  0.43741263  0.91427711    -0.57400
Mn1074     Mn  0.98508511  0.42875852  0.49828266     1.20200
Mn1075     Mn  0.99016220  0.48827656  0.93709932     1.10100
Cl1076     Cl  0.98829330  0.49407697  0.49929855    -0.85400
C1077       C  0.91529279  0.40686560  0.92495242     0.96900
C1078       C  0.06614124  0.40735923  0.92324895     0.96700
C1079       C  0.26907910  0.27253142  0.71154499     0.46000
H1080       H  0.27343874  0.27230953  0.68391069    -0.03000
C1081       C  0.26222165  0.27420910  0.77703728     0.46100
H1082       H  0.25928797  0.27448804  0.80521339    -0.03000
C1083       C  0.29095460  0.30165183  0.72891868    -0.16700
C1084       C  0.22995829  0.27778722  0.72314226    -0.16500
C1085       C  0.28155941  0.23872712  0.72848118    -0.16800
C1086       C  0.28651671  0.30261581  0.76380240    -0.16800
C1087       C  0.22763005  0.28163769  0.75863029    -0.16400
C1088       C  0.27760765  0.23955032  0.76340689    -0.16700
C1089       C  0.73397726  0.25562179  0.71280489     0.46000
H1090       H  0.74001139  0.25043769  0.68590059    -0.03000
C1091       C  0.71937006  0.26490584  0.77633490     0.46100
H1092       H  0.71172848  0.26950424  0.80281501    -0.03000
C1093       C  0.71120952  0.28778489  0.71869010    -0.16700
C1094       C  0.71497365  0.22464359  0.73006159    -0.16500
C1095       C  0.76653511  0.26403915  0.73401155    -0.16800
C1096       C  0.70147306  0.29108085  0.75233443    -0.16800
C1097       C  0.70727839  0.22980334  0.76383688    -0.16400
C1098       C  0.75936991  0.26748096  0.76887929    -0.16700
C1099       C  0.24790560  0.72631605  0.71921284     0.46000
H1100       H  0.24541392  0.72408125  0.69132270    -0.03000
C1101       C  0.25355654  0.73459466  0.78434243     0.46100
H1102       H  0.25614237  0.73741487  0.81227912    -0.03000
C1103       C  0.27764956  0.70482554  0.73424494    -0.16700
C1104       C  0.25665915  0.76396997  0.72940302    -0.16500
C1105       C  0.21517229  0.71434180  0.73925003    -0.16800
C1106       C  0.28033954  0.70917525  0.76898900    -0.16800
C1107       C  0.25918659  0.76867021  0.76446620    -0.16400
C1108       C  0.21781740  0.71974653  0.77401389    -0.16700
C1109       C  0.75420466  0.75327165  0.71826660     0.46000
H1110       H  0.75324761  0.75696225  0.69020930    -0.03000
C1111       C  0.75533365  0.74559840  0.78350560     0.46100
H1112       H  0.75570074  0.74371699  0.81147566    -0.03000
C1113       C  0.73263733  0.72236956  0.73052805    -0.16700
C1114       C  0.79128280  0.74543159  0.73191629    -0.16500
C1115       C  0.73806552  0.78431728  0.73723945    -0.16800
C1116       C  0.73247293  0.71816524  0.76556478    -0.16800
C1117       C  0.79180522  0.74101886  0.76702720    -0.16400
C1118       C  0.73982883  0.78091127  0.77230759    -0.16700
C1119       C  0.08614224  0.64009993  0.64926728    -0.11300
C1120       C  0.12266200  0.63979586  0.64823453     0.11300
C1121       C  0.14003889  0.61737671  0.62500560    -0.03100
C1122       C  0.12009616  0.59647743  0.60307040    -0.05900
C1123       C  0.08369904  0.59679742  0.60414146    -0.16600
C1124       C  0.06621331  0.61889401  0.62751642     0.02300
C1125       C  0.14211067  0.66084498  0.67378153     0.12200
C1126       C  0.17948266  0.61507448  0.62370400     0.62900
H1127       H  0.13279027  0.57923927  0.58511688     0.12300
C1128       C  0.02673603  0.61960563  0.62984535     0.55000
H1129       H  0.07339931  0.65668324  0.66777569     0.08100
C1130       C  0.15041886  0.69597369  0.66878847    -0.05800
C1131       C  0.17230531  0.71261753  0.69251970    -0.06500
C1132       C  0.18679526  0.69523298  0.72059485    -0.16100
C1133       C  0.17688487  0.66001162  0.72612092    -0.01700
C1134       C  0.15335731  0.64440708  0.70338847    -0.09200
C1135       C  0.13663740  0.71556721  0.63825581     0.65100
H1136       H  0.17955810  0.73929580  0.68849489     0.10500
C1137       C  0.19119836  0.63621491  0.75338959     0.63500
H1138       H  0.14554190  0.61783575  0.70737780     0.07900
F1139       F  0.01500956  0.64400123  0.65310718    -0.19600
F1140       F  0.01467852  0.58765723  0.64003043    -0.15800
F1141       F  0.01274028  0.62753394  0.59840325    -0.19300
F1142       F  0.19197071  0.60356043  0.65463116    -0.22700
F1143       F  0.19338016  0.64713254  0.61675743    -0.24200
F1144       F  0.19092095  0.59240478  0.59868883    -0.18200
F1145       F  0.16650335  0.63213687  0.77860885    -0.20600
F1146       F  0.22167890  0.64801566  0.76733076    -0.21800
F1147       F  0.19827885  0.60391894  0.73973124    -0.19000
F1148       F  0.14708005  0.74973724  0.63858231    -0.19100
F1149       F  0.10065237  0.71490818  0.63841199    -0.22900
F1150       F  0.14866580  0.70054208  0.60845902    -0.24500
C1151       C  0.13601227  0.69076159  0.82326084    -0.11300
C1152       C  0.15069358  0.66648949  0.84555163     0.11300
C1153       C  0.18735242  0.66319844  0.84709594    -0.03100
C1154       C  0.20800876  0.68398922  0.82573067    -0.05900
C1155       C  0.19337284  0.70579066  0.80080872    -0.16600
C1156       C  0.15670700  0.71089743  0.80112055     0.02300
C1157       C  0.12724076  0.64305736  0.86518560     0.12200
C1158       C  0.20452635  0.63560243  0.86885339     0.62900
H1159       H  0.23594824  0.68048255  0.82594275     0.12300
C1160       C  0.13797984  0.73771447  0.77990076     0.55000
H1161       H  0.10792306  0.69358031  0.82270366     0.08100
C1162       C  0.11354682  0.65194898  0.89751986    -0.05800
C1163       C  0.09358423  0.62732868  0.91536063    -0.06500
C1164       C  0.08594220  0.59444467  0.90163470    -0.16100
C1165       C  0.09875188  0.58626288  0.86838501    -0.01700
C1166       C  0.11931498  0.61077693  0.85103606    -0.09200
C1167       C  0.11964383  0.68750388  0.91281564     0.65100
H1168       H  0.08346381  0.63397585  0.94030442     0.10500
C1169       C  0.09097648  0.55218506  0.85072035     0.63500
H1170       H  0.12968342  0.60487874  0.82602027     0.07900
F1171       F  0.11894202  0.75904283  0.80135807    -0.19600
F1172       F  0.11537188  0.72140901  0.75774124    -0.15800
F1173       F  0.16023112  0.75830100  0.76123617    -0.19300
F1174       F  0.19645070  0.60336572  0.85594206    -0.22700
F1175       F  0.19289728  0.63771976  0.90216350    -0.24200
F1176       F  0.24043212  0.63881968  0.86914105    -0.18200
F1177       F  0.05545327  0.54886472  0.84599356    -0.20600
F1178       F  0.10333834  0.52511357  0.87013940    -0.21800
F1179       F  0.10663832  0.54990242  0.81894675    -0.19000
F1180       F  0.10426767  0.69095565  0.94462209    -0.19100
F1181       F  0.10563162  0.71235915  0.89169618    -0.22900
F1182       F  0.15490424  0.69354149  0.91635027    -0.24500
C1183       C  0.16436343  0.34497936  0.80505251    -0.11300
C1184       C  0.15356421  0.32497772  0.83248671     0.11300
C1185       C  0.16412519  0.29001954  0.83380292    -0.03100
C1186       C  0.18635627  0.27678337  0.80790229    -0.05900
C1187       C  0.19848889  0.29708999  0.78051364    -0.16600
C1188       C  0.18646153  0.33223493  0.77922368     0.02300
C1189       C  0.13233724  0.34266358  0.85959533     0.12200
C1190       C  0.15320100  0.26737034  0.86331569     0.62900
H1191       H  0.19553929  0.25049910  0.80961902     0.12300
C1192       C  0.19500872  0.35879901  0.75246905     0.55000
H1193       H  0.15582110  0.37168679  0.80424315     0.08100
C1194       C  0.14700145  0.36721306  0.88248353    -0.05800
C1195       C  0.12462894  0.38804333  0.90254922    -0.06500
C1196       C  0.08831211  0.38446300  0.90145117    -0.16100
C1197       C  0.07371170  0.35892747  0.87985388    -0.01700
C1198       C  0.09593717  0.33898347  0.85873767    -0.09200
C1199       C  0.18590965  0.37278534  0.88675113     0.65100
H1200       H  0.13572916  0.40725710  0.91946389     0.10500
C1201       C  0.03468769  0.35298588  0.87914580     0.63500
H1202       H  0.08496347  0.32079071  0.84074034     0.07900
F1203       F  0.21259693  0.38597289  0.76742810    -0.19600
F1204       F  0.16431036  0.37140416  0.73907169    -0.15800
F1205       F  0.21455688  0.34613277  0.72620323    -0.19300
F1206       F  0.11729979  0.26533264  0.86475334    -0.22700
F1207       F  0.16541747  0.28131820  0.89347799    -0.24200
F1208       F  0.16623250  0.23419528  0.86012523    -0.18200
F1209       F  0.02559598  0.32706328  0.85651008    -0.20600
F1210       F  0.01780750  0.38292747  0.86950364    -0.21800
F1211       F  0.02334276  0.34350036  0.91125298    -0.19000
F1212       F  0.19438012  0.36973572  0.92085923    -0.19100
F1213       F  0.19439794  0.40564358  0.87595140    -0.22900
F1214       F  0.20607994  0.34934913  0.86881131    -0.24500
C1215       C  0.18208629  0.30227639  0.64130480    -0.11300
C1216       C  0.15284480  0.31906272  0.65504844     0.11300
C1217       C  0.14301496  0.31126615  0.68898461    -0.03100
C1218       C  0.16622201  0.29214646  0.70947062    -0.05900
C1219       C  0.19959025  0.28223091  0.69780734    -0.16600
C1220       C  0.20359926  0.28112823  0.66159935     0.02300
C1221       C  0.13112863  0.34160015  0.63252699     0.12200
C1222       C  0.10833619  0.32320150  0.70362393     0.62900
H1223       H  0.15807120  0.28528471  0.73471854     0.12300
C1224       C  0.22440815  0.25365550  0.64286593     0.55000
H1225       H  0.18688339  0.30396114  0.61410665     0.08100
C1226       C  0.13935888  0.37673454  0.62650482    -0.05800
C1227       C  0.11656916  0.39692220  0.60661225    -0.06500
C1228       C  0.08636325  0.38306315  0.59193299    -0.16100
C1229       C  0.07853791  0.34760373  0.59734551    -0.01700
C1230       C  0.10137887  0.32748774  0.61728487    -0.09200
C1231       C  0.17185628  0.39300001  0.64137821     0.65100
H1232       H  0.12218946  0.42393425  0.60232307     0.10500
C1233       C  0.04556478  0.33118536  0.58350990     0.63500
H1234       H  0.09597186  0.30044029  0.62158327     0.07900
F1235       F  0.25257473  0.26824833  0.62636767    -0.19600
F1236       F  0.20352267  0.23812846  0.61856036    -0.15800
F1237       F  0.23553660  0.22787789  0.66447986    -0.19300
F1238       F  0.08146859  0.30673785  0.68683249    -0.22700
F1239       F  0.10470135  0.35845936  0.69972425    -0.24200
F1240       F  0.10541152  0.31580696  0.73803062    -0.18200
F1241       F  0.04119434  0.29780771  0.59525168    -0.20600
F1242       F  0.04702723  0.32985693  0.54832546    -0.21800
F1243       F  0.01681888  0.35022964  0.59367055    -0.19000
F1244       F  0.17569639  0.42701556  0.63140059    -0.19100
F1245       F  0.20102487  0.37499194  0.63071091    -0.22900
F1246       F  0.17003511  0.39231264  0.67646320    -0.24500
C1247       C  0.83967325  0.36478756  0.62121164    -0.11300
C1248       C  0.85696190  0.34744522  0.64767513     0.11300
C1249       C  0.89344009  0.35176374  0.65141918    -0.03100
C1250       C  0.91110942  0.37451954  0.62940411    -0.05900
C1251       C  0.89364335  0.39244326  0.60360449    -0.16600
C1252       C  0.85750221  0.38740246  0.59908867     0.02300
C1253       C  0.83590617  0.32614142  0.67189564     0.12200
C1254       C  0.91355996  0.33266168  0.67872299     0.62900
H1255       H  0.93892775  0.37830143  0.63192880     0.12300
C1256       C  0.83793447  0.40683920  0.57167427     0.55000
H1257       H  0.81188900  0.36093519  0.61846046     0.08100
C1258       C  0.81606655  0.34140750  0.69846875    -0.05800
C1259       C  0.79578867  0.32003828  0.71967312    -0.06500
C1260       C  0.79422365  0.28405824  0.71506508    -0.16100
C1261       C  0.81626336  0.26869694  0.69019917    -0.01700
C1262       C  0.83612364  0.29007395  0.66848375    -0.09200
C1263       C  0.81587380  0.38021094  0.70403019     0.65100
H1264       H  0.78060740  0.33133225  0.74003730     0.10500
C1265       C  0.82010239  0.22990173  0.68769131     0.63500
H1266       H  0.85184335  0.27873003  0.64838925     0.07900
F1267       F  0.80284555  0.39883304  0.57166940    -0.19600
F1268       F  0.85142630  0.39860495  0.53994150    -0.15800
F1269       F  0.84131406  0.44195319  0.57715998    -0.19300
F1270       F  0.91185836  0.29752957  0.67282193    -0.22700
F1271       F  0.89950993  0.33999201  0.71036320    -0.24200
F1272       F  0.94833372  0.34201744  0.67921723    -0.18200
F1273       F  0.79039070  0.21567476  0.67395748    -0.20600
F1274       F  0.82572955  0.21639964  0.71980774    -0.21800
F1275       F  0.84803299  0.22054025  0.66723515    -0.19000
F1276       F  0.79792137  0.38939367  0.73332698    -0.19100
F1277       F  0.80008073  0.39623063  0.67672788    -0.22900
F1278       F  0.84957571  0.39228996  0.70707946    -0.24500
C1279       C  0.86795230  0.32945789  0.88513067    -0.11300
C1280       C  0.84731087  0.34571951  0.86061066     0.11300
C1281       C  0.84793780  0.38218105  0.85802351    -0.03100
C1282       C  0.87028934  0.40094684  0.87966239    -0.05900
C1283       C  0.89153844  0.38471163  0.90405134    -0.16600
C1284       C  0.89058430  0.34802179  0.90655073     0.02300
C1285       C  0.82667983  0.32297988  0.83771158     0.12200
C1286       C  0.82593874  0.40266083  0.83308126     0.62900
H1287       H  0.87099185  0.42881646  0.87748661     0.12300
C1288       C  0.91434392  0.32788367  0.93021346     0.55000
H1289       H  0.86681368  0.30157687  0.88658418     0.08100
C1290       C  0.84070229  0.30962353  0.80701469    -0.05800
C1291       C  0.82005745  0.28740743  0.78704693    -0.06500
C1292       C  0.78542922  0.27930599  0.79603234    -0.16100
C1293       C  0.77631052  0.28508885  0.83088836    -0.01700
C1294       C  0.79513992  0.30966667  0.84980092    -0.09200
C1295       C  0.87728876  0.31877266  0.79547835     0.65100
H1296       H  0.83133739  0.27630754  0.76442820     0.10500
C1297       C  0.75383119  0.26066112  0.85158002     0.63500
H1298       H  0.78693966  0.31599541  0.87556464     0.07900
F1299       F  0.91147994  0.29258897  0.92538436    -0.19600
F1300       F  0.90578846  0.33484947  0.96379801    -0.15800
F1301       F  0.94865792  0.33676388  0.92405755    -0.19300
F1302       F  0.80667986  0.42704427  0.85082539    -0.22700
F1303       F  0.80299752  0.38252626  0.81465336    -0.24200
F1304       F  0.84760443  0.41949774  0.81037166    -0.18200
F1305       F  0.77149484  0.25098685  0.88075517    -0.20600
F1306       F  0.74660166  0.23063411  0.83388428    -0.21800
F1307       F  0.72324817  0.27688269  0.86135074    -0.19000
F1308       F  0.88639036  0.30181237  0.76565877    -0.19100
F1309       F  0.90105360  0.30949621  0.82021058    -0.22900
F1310       F  0.87952187  0.35387770  0.78983733    -0.24500
C1311       C  0.84901467  0.70666418  0.83972499    -0.11300
C1312       C  0.85584433  0.67279966  0.82850797     0.11300
C1313       C  0.84576634  0.66323624  0.79512806    -0.03100
C1314       C  0.82847729  0.68759730  0.77456232    -0.05900
C1315       C  0.81916400  0.72075413  0.78640698    -0.16600
C1316       C  0.83135656  0.73096778  0.81912988     0.02300
C1317       C  0.87238832  0.64743673  0.85245267     0.12200
C1318       C  0.85063556  0.62653062  0.78210130     0.62900
H1319       H  0.81959363  0.67947874  0.74990043     0.12300
C1320       C  0.82638484  0.76697659  0.83365324     0.55000
H1321       H  0.85712078  0.71409757  0.86515263     0.08100
C1322       C  0.90894153  0.64561178  0.85729790    -0.05800
C1323       C  0.92265775  0.62043149  0.87960305    -0.06500
C1324       C  0.90116931  0.59683594  0.89680331    -0.16100
C1325       C  0.86470498  0.59848504  0.89179051    -0.01700
C1326       C  0.85087506  0.62406181  0.86998832    -0.09200
C1327       C  0.93332730  0.67016482  0.83891900     0.65100
H1328       H  0.95047739  0.61892515  0.88382966     0.10500
C1329       C  0.84066257  0.57326190  0.90951013     0.63500
H1330       H  0.82301879  0.62584693  0.86615568     0.07900
F1331       F  0.81360055  0.79013466  0.81007549    -0.19600
F1332       F  0.85811153  0.77941089  0.84489484    -0.15800
F1333       F  0.80362359  0.76561952  0.86099411    -0.19300
F1334       F  0.83004998  0.60434836  0.80089501    -0.22700
F1335       F  0.88503935  0.61654821  0.78505353    -0.24200
F1336       F  0.84128216  0.62324449  0.74819358    -0.18200
F1337       F  0.84362553  0.57706635  0.94444380    -0.20600
F1338       F  0.84970635  0.53989527  0.90048414    -0.21800
F1339       F  0.80616701  0.57849323  0.90069124    -0.19000
F1340       F  0.96791859  0.66307311  0.84591675    -0.19100
F1341       F  0.92644291  0.70368584  0.84902809    -0.22900
F1342       F  0.92872047  0.66749847  0.80407661    -0.24500
C1343       C  0.87629388  0.70754472  0.69528571    -0.11300
C1344       C  0.86275593  0.68485545  0.67063159     0.11300
C1345       C  0.82710038  0.68706701  0.66211870    -0.03100
C1346       C  0.80542072  0.70861286  0.68152805    -0.05900
C1347       C  0.81807820  0.72998487  0.70786615    -0.16600
C1348       C  0.85482638  0.73165662  0.71256585     0.02300
C1349       C  0.88553135  0.65878777  0.65350171     0.12200
C1350       C  0.81166811  0.66658485  0.63262884     0.62900
H1351       H  0.77784674  0.70701132  0.67698447     0.12300
C1352       C  0.87272253  0.75846154  0.73459171     0.55000
H1353       H  0.90390069  0.70675731  0.70083454     0.08100
C1354       C  0.90750448  0.66742464  0.62586570    -0.05800
C1355       C  0.92115848  0.64066417  0.60543580    -0.06500
C1356       C  0.91369128  0.60566354  0.61171251    -0.16100
C1357       C  0.89334386  0.59702551  0.64078477    -0.01700
C1358       C  0.88030557  0.62391667  0.66156238    -0.09200
C1359       C  0.91612642  0.70472776  0.61774225     0.65100
H1360       H  0.93768370  0.64708485  0.58398642     0.10500
C1361       C  0.88353337  0.56000886  0.64896591     0.63500
H1362       H  0.86378306  0.61803591  0.68317708     0.07900
F1363       F  0.88881086  0.74256100  0.76185255    -0.19600
F1364       F  0.84995065  0.78331720  0.74668747    -0.15800
F1365       F  0.89789794  0.77505023  0.71542711    -0.19300
F1366       F  0.81185476  0.63174764  0.63989730    -0.22700
F1367       F  0.83081084  0.67234064  0.60328694    -0.24200
F1368       F  0.77762791  0.67620021  0.62610731    -0.18200
F1369       F  0.91290793  0.54158436  0.65802103    -0.20600
F1370       F  0.86817057  0.54478540  0.62083902    -0.21800
F1371       F  0.86009495  0.55812836  0.67580497    -0.19000
F1372       F  0.93623240  0.70754597  0.58852651    -0.19100
F1373       F  0.93462092  0.71900381  0.64445018    -0.22900
F1374       F  0.88589742  0.72347917  0.61287771    -0.24500
C1375       C  0.64008380  0.18590196  0.82296733    -0.11300
C1376       C  0.65748912  0.15552147  0.83156362     0.11300
C1377       C  0.69074347  0.14889396  0.81718559    -0.03100
C1378       C  0.70550619  0.17347324  0.79480645    -0.05900
C1379       C  0.68838551  0.20449568  0.78661155    -0.16600
C1380       C  0.65500883  0.21092102  0.80151493     0.02300
C1381       C  0.63870818  0.13070630  0.85422780     0.12200
C1382       C  0.71062213  0.11620232  0.82575684     0.62900
H1383       H  0.73110552  0.16898983  0.78416881     0.12300
C1384       C  0.63464988  0.24382793  0.79572147     0.55000
H1385       H  0.61450300  0.19009138  0.83395450     0.08100
C1386       C  0.63477000  0.13625802  0.88982376    -0.05800
C1387       C  0.61324632  0.11375739  0.90872544    -0.06500
C1388       C  0.59472710  0.08675436  0.89312884    -0.16100
C1389       C  0.59939220  0.08078547  0.85759821    -0.01700
C1390       C  0.62111618  0.10312017  0.83882785    -0.09200
C1391       C  0.65256275  0.16625640  0.90768286     0.65100
H1392       H  0.60979203  0.11780060  0.93585826     0.10500
C1393       C  0.58220612  0.05067934  0.83939958     0.63500
H1394       H  0.62387127  0.09978384  0.81152532     0.07900
F1395       F  0.64982601  0.27056796  0.81349434    -0.19600
F1396       F  0.60045614  0.24119553  0.80673725    -0.15800
F1397       F  0.63378801  0.25122651  0.76159050    -0.19300
F1398       F  0.69232276  0.08769940  0.81453800    -0.22700
F1399       F  0.71511473  0.11392126  0.86062548    -0.24200
F1400       F  0.74320281  0.11551842  0.81054516    -0.18200
F1401       F  0.54666716  0.05607035  0.83768141    -0.20600
F1402       F  0.58889469  0.02034705  0.85670134    -0.21800
F1403       F  0.59459674  0.04673538  0.80641713    -0.19000
F1404       F  0.64786382  0.16509603  0.94267626    -0.19100
F1405       F  0.63899490  0.19711383  0.89616749    -0.22900
F1406       F  0.68793880  0.16550413  0.90113441    -0.24500
C1407       C  0.69287352  0.14383870  0.67792167    -0.11300
C1408       C  0.65884552  0.15205359  0.66767184     0.11300
C1409       C  0.64297826  0.18267412  0.67976571    -0.03100
C1410       C  0.66257003  0.20491934  0.70029860    -0.05900
C1411       C  0.69699992  0.19771745  0.70956113    -0.16600
C1412       C  0.71232807  0.16614275  0.69897801     0.02300
C1413       C  0.63948808  0.12757914  0.64560713     0.12200
C1414       C  0.60550770  0.19193864  0.67110076     0.62900
H1415       H  0.65123910  0.22876267  0.70870599     0.12300
C1416       C  0.74827438  0.15415596  0.70951012     0.55000
H1417       H  0.70428921  0.11965814  0.66949141     0.08100
C1418       C  0.64237975  0.12792484  0.60968671    -0.05800
C1419       C  0.62004285  0.10663556  0.59043872    -0.06500
C1420       C  0.59498498  0.08529712  0.60602307    -0.16100
C1421       C  0.59351375  0.08397038  0.64234441    -0.01700
C1422       C  0.61616620  0.10500106  0.66132353    -0.09200
C1423       C  0.66889210  0.15080843  0.59198233     0.65100
H1424       H  0.62165528  0.10696371  0.56288273     0.10500
C1425       C  0.56863140  0.06056731  0.66155073     0.63500
H1426       H  0.61508871  0.10499294  0.68892332     0.07900
F1427       F  0.76835947  0.14847947  0.68070436    -0.19600
F1428       F  0.74529518  0.12346045  0.72714835    -0.15800
F1429       F  0.76534586  0.17754559  0.73012050    -0.19300
F1430       F  0.58318358  0.16728795  0.68405486    -0.22700
F1431       F  0.60143548  0.19362893  0.63615783    -0.24200
F1432       F  0.59579094  0.22352875  0.68476997    -0.18200
F1433       F  0.57500323  0.06058139  0.69628484    -0.20600
F1434       F  0.57229635  0.02706898  0.65011252    -0.21800
F1435       F  0.53473869  0.07152619  0.65672192    -0.19000
F1436       F  0.66752631  0.14737855  0.55687645    -0.19100
F1437       F  0.70207974  0.14196797  0.60240402    -0.22900
F1438       F  0.66276439  0.18503040  0.60010315    -0.24500
C1439       C  0.33561768  0.18269421  0.66588176    -0.11300
C1440       C  0.31998819  0.15047565  0.66903378     0.11300
C1441       C  0.29248259  0.14637513  0.69289027    -0.03100
C1442       C  0.28040525  0.17573156  0.71131420    -0.05900
C1443       C  0.29649472  0.20835572  0.70841834    -0.16600
C1444       C  0.32587225  0.21099471  0.68619506     0.02300
C1445       C  0.33734175  0.12171967  0.64977973     0.12200
C1446       C  0.27664697  0.11117121  0.69929384     0.62900
H1447       H  0.25842350  0.17328734  0.72839135     0.12300
C1448       C  0.34947543  0.24197428  0.68552055     0.55000
H1449       H  0.35713560  0.18502083  0.64808333     0.08100
C1450       C  0.32855684  0.11261519  0.61580568    -0.05800
C1451       C  0.35212452  0.09250877  0.59638892    -0.06500
C1452       C  0.38486256  0.08203538  0.60889949    -0.16100
C1453       C  0.39367512  0.09147840  0.64305267    -0.01700
C1454       C  0.36932038  0.11031000  0.66284255    -0.09200
C1455       C  0.29547404  0.12415522  0.59806701     0.65100
H1456       H  0.34499922  0.08575633  0.57050256     0.10500
C1457       C  0.42892775  0.08338391  0.65870965     0.63500
H1458       H  0.37599668  0.11844588  0.68844425     0.07900
F1459       F  0.33408019  0.26797480  0.66711261    -0.19600
F1460       F  0.38134271  0.23475978  0.67040849    -0.15800
F1461       F  0.35620592  0.25213695  0.71845198    -0.19300
F1462       F  0.30211826  0.08885960  0.71080721    -0.22700
F1463       F  0.26266953  0.09807174  0.66953939    -0.24200
F1464       F  0.25041777  0.11262709  0.72356423    -0.18200
F1465       F  0.43219313  0.09696901  0.69125064    -0.20600
F1466       F  0.45513786  0.09752945  0.63894925    -0.21800
F1467       F  0.43338089  0.04807285  0.66105023    -0.19000
F1468       F  0.27774231  0.09541426  0.58638195    -0.19100
F1469       F  0.30414513  0.14455872  0.57047736    -0.22900
F1470       F  0.27325483  0.14277539  0.61890965    -0.24500
C1471       C  0.29610295  0.16648130  0.82774831    -0.11300
C1472       C  0.33228860  0.16981424  0.83227717     0.11300
C1473       C  0.35014735  0.19556319  0.81347047    -0.03100
C1474       C  0.33107847  0.21739417  0.79156847    -0.05900
C1475       C  0.29496897  0.21405937  0.78683712    -0.16600
C1476       C  0.27710978  0.18792791  0.80525163     0.02300
C1477       C  0.35124602  0.14450653  0.85478426     0.12200
C1478       C  0.38935783  0.19984575  0.81620906     0.62900
H1479       H  0.34437194  0.23769473  0.77797850     0.12300
C1480       C  0.23842692  0.18091273  0.80200113     0.55000
H1481       H  0.28254091  0.14633042  0.84151255     0.08100
C1482       C  0.35206034  0.14716167  0.89090849    -0.05800
C1483       C  0.37131082  0.12256897  0.90988490    -0.06500
C1484       C  0.39068838  0.09606292  0.89403175    -0.16100
C1485       C  0.38962998  0.09349096  0.85775986    -0.01700
C1486       C  0.36932313  0.11727077  0.83908324    -0.09200
C1487       C  0.33327549  0.17628903  0.90927310     0.65100
H1488       H  0.37199397  0.12434490  0.93742485     0.10500
C1489       C  0.40952334  0.06570123  0.83839984     0.63500
H1490       H  0.36797047  0.11530946  0.81157607     0.07900
F1491       F  0.22242651  0.18706653  0.83306776    -0.19600
F1492       F  0.23348200  0.14667900  0.79319009    -0.15800
F1493       F  0.22238870  0.20094754  0.77760260    -0.19300
F1494       F  0.40588522  0.17094851  0.80319008    -0.22700
F1495       F  0.39878809  0.20418997  0.84992033    -0.24200
F1496       F  0.40109714  0.22820495  0.79817352    -0.18200
F1497       F  0.40148433  0.06550085  0.80402042    -0.20600
F1498       F  0.40139900  0.03352641  0.85131011    -0.21800
F1499       F  0.44491545  0.07151897  0.84128201    -0.19000
F1500       F  0.33797541  0.17484421  0.94421961    -0.19100
F1501       F  0.29796464  0.17459103  0.90282773    -0.22900
F1502       F  0.34587792  0.20758923  0.89803646    -0.24500
C1503       C  0.66315500  0.83510211  0.69338400    -0.11300
C1504       C  0.68118168  0.85171335  0.66719051     0.11300
C1505       C  0.71813065  0.84982537  0.66697961    -0.03100
C1506       C  0.73512253  0.82875025  0.69129028    -0.05900
C1507       C  0.71698442  0.81035165  0.71675004    -0.16600
C1508       C  0.67978835  0.81404846  0.71764772     0.02300
C1509       C  0.65944819  0.87086655  0.64163379     0.12200
C1510       C  0.74101451  0.86933900  0.64209367     0.62900
H1511       H  0.76324311  0.82632619  0.69010943     0.12300
C1512       C  0.65523048  0.79580886  0.74182797     0.55000
H1513       H  0.63500789  0.83763150  0.69405860     0.08100
C1514       C  0.64529658  0.85527125  0.61177574    -0.05800
C1515       C  0.61944599  0.87301339  0.59313342    -0.06500
C1516       C  0.60709038  0.90560864  0.60305142    -0.16100
C1517       C  0.62287887  0.92211182  0.63141757    -0.01700
C1518       C  0.64839770  0.90428801  0.65043085    -0.09200
C1519       C  0.65588022  0.82011149  0.59819343     0.65100
H1520       H  0.60845009  0.86099323  0.57060431     0.10500
C1521       C  0.61274046  0.95840992  0.64171580     0.63500
H1522       H  0.65925937  0.91597719  0.67314723     0.07900
F1523       F  0.62763979  0.78161549  0.72402820    -0.19600
F1524       F  0.64217953  0.81936726  0.76513428    -0.15800
F1525       F  0.67086560  0.76948965  0.75887403    -0.19300
F1526       F  0.72239135  0.89010374  0.62013230    -0.22700
F1527       F  0.76020763  0.84608941  0.62287784    -0.24200
F1528       F  0.76371315  0.89010945  0.66020991    -0.18200
F1529       F  0.57909053  0.95818855  0.65428264    -0.20600
F1530       F  0.61470650  0.98005175  0.61379774    -0.21800
F1531       F  0.63448351  0.97152022  0.66669874    -0.19000
F1532       F  0.66794558  0.82355034  0.56511057    -0.19100
F1533       F  0.62700420  0.79883899  0.59783164    -0.22900
F1534       F  0.68174498  0.80452361  0.61708154    -0.24500
C1535       C  0.61253811  0.86023812  0.85125467    -0.11300
C1536       C  0.64719027  0.85872462  0.86237647     0.11300
C1537       C  0.65642817  0.87513499  0.89329837    -0.03100
C1538       C  0.63070216  0.89370786  0.91139775    -0.05900
C1539       C  0.59583517  0.89574682  0.90024232    -0.16600
C1540       C  0.58634582  0.87746436  0.87013934     0.02300
C1541       C  0.67291529  0.83887071  0.84143513     0.12200
C1542       C  0.69328306  0.87289931  0.90722212     0.62900
H1543       H  0.63798238  0.90710220  0.93453356     0.12300
C1544       C  0.54880779  0.87467306  0.85843805     0.55000
H1545       H  0.60608322  0.84724796  0.82762054     0.08100
C1546       C  0.67468170  0.80247592  0.84266089    -0.05800
C1547       C  0.69859525  0.78530650  0.82132041    -0.06500
C1548       C  0.72015438  0.80286921  0.79785327    -0.16100
C1549       C  0.71985448  0.83955387  0.79838485    -0.01700
C1550       C  0.69548127  0.85679495  0.81949201    -0.09200
C1551       C  0.65049689  0.78161527  0.86546120     0.65100
H1552       H  0.69856531  0.75746699  0.82119325     0.08400
C1553       C  0.74527202  0.86194752  0.77880264     0.63500
H1554       H  0.69430476  0.88474452  0.81913514     0.07900
F1555       F  0.52816915  0.86349034  0.88517134    -0.19600
F1556       F  0.54515205  0.85124902  0.83195720    -0.15800
F1557       F  0.53708655  0.90633708  0.84710302    -0.19300
F1558       F  0.71626078  0.88849820  0.88494103    -0.22700
F1559       F  0.70285401  0.83877210  0.91125903    -0.24200
F1560       F  0.69626024  0.88905528  0.93861569    -0.18200
F1561       F  0.72734924  0.88093500  0.75474685    -0.20600
F1562       F  0.77123716  0.84324646  0.76274105    -0.21800
F1563       F  0.76126145  0.88451845  0.80120503    -0.19000
F1564       F  0.65829110  0.74672497  0.86452385    -0.19100
F1565       F  0.61645036  0.78565168  0.85489020    -0.22900
F1566       F  0.65323670  0.79259241  0.89889200    -0.24500
C1567       C  0.36475959  0.84883616  0.86321818    -0.11300
C1568       C  0.33717390  0.86652404  0.84752043     0.11300
C1569       C  0.33227156  0.90205213  0.85490529    -0.03100
C1570       C  0.35468452  0.91843888  0.87849346    -0.05900
C1571       C  0.38244646  0.90082355  0.89398316    -0.16600
C1572       C  0.38783422  0.86551386  0.88595322     0.02300
C1573       C  0.31464716  0.84701781  0.82289508     0.12200
C1574       C  0.30421139  0.92274240  0.83704830     0.62900
H1575       H  0.35117066  0.94551967  0.88450397     0.12300
C1576       C  0.41775595  0.84555419  0.90150586     0.55000
H1577       H  0.36834139  0.82179798  0.85704240     0.08100
C1578       C  0.32612047  0.83733404  0.78981434    -0.05800
C1579       C  0.30633830  0.81353759  0.77078129    -0.06500
C1580       C  0.27451869  0.79986002  0.78256379    -0.16100
C1581       C  0.26147970  0.81245815  0.81439992    -0.01700
C1582       C  0.28234384  0.83468689  0.83435169    -0.09200
C1583       C  0.35958680  0.85007572  0.77354520     0.65100
H1584       H  0.31770124  0.80377458  0.74744234     0.10500
C1585       C  0.22619478  0.80305794  0.82911168     0.63500
H1586       H  0.27342720  0.84218553  0.85957305     0.07900
F1587       F  0.44901015  0.86006916  0.89153525    -0.19600
F1588       F  0.41778115  0.81129277  0.89134015    -0.15800
F1589       F  0.41520482  0.84663210  0.93666352    -0.19300
F1590       F  0.27172631  0.91037728  0.84599938    -0.22700
F1591       F  0.30843087  0.91996519  0.80211033    -0.24200
F1592       F  0.30560165  0.95739013  0.84566173    -0.18200
F1593       F  0.23064383  0.78132155  0.85665767    -0.20600
F1594       F  0.20483823  0.78736470  0.80558766    -0.21800
F1595       F  0.20934985  0.83265994  0.84017781    -0.19000
F1596       F  0.35224138  0.86304709  0.74154107    -0.19100
F1597       F  0.38249388  0.82271163  0.77006003    -0.22900
F1598       F  0.37570190  0.87589330  0.79199435    -0.24500
C1599       C  0.37083087  0.85913520  0.65132915    -0.11300
C1600       C  0.33855039  0.85012680  0.63736781     0.11300
C1601       C  0.33002331  0.86180386  0.60431126    -0.03100
C1602       C  0.35449970  0.88194793  0.58619034    -0.05900
C1603       C  0.38705117  0.89142893  0.60006623    -0.16600
C1604       C  0.39536426  0.87946713  0.63350548     0.02300
C1605       C  0.31485454  0.82766042  0.65800634     0.12200
C1606       C  0.29492437  0.85348859  0.58850729     0.62900
H1607       H  0.34792625  0.89092154  0.56093217     0.12300
C1608       C  0.42953343  0.88802296  0.65101976     0.55000
H1609       H  0.37662179  0.84986374  0.67669039     0.08100
C1610       C  0.32004001  0.79160766  0.65979352    -0.05800
C1611       C  0.29899642  0.77230875  0.68194221    -0.06500
C1612       C  0.27299858  0.78715208  0.70281762    -0.16100
C1613       C  0.26599399  0.82292136  0.69893890    -0.01700
C1614       C  0.28781968  0.84272169  0.67738915    -0.09200
C1615       C  0.34831079  0.77342629  0.63909180     0.65100
H1616       H  0.30395603  0.74517376  0.68377391     0.10500
C1617       C  0.23567204  0.84127417  0.71594594     0.63500
H1618       H  0.28359696  0.87032081  0.67556132     0.07900
F1619       F  0.45717988  0.87638239  0.63140879    -0.19600
F1620       F  0.43218779  0.87259396  0.68270270    -0.15800
F1621       F  0.43201129  0.92328703  0.65588428    -0.19300
F1622       F  0.26864571  0.86808594  0.60794539    -0.22700
F1623       F  0.28999991  0.81820431  0.58711668    -0.24200
F1624       F  0.29219584  0.86618273  0.55568313    -0.18200
F1625       F  0.24819247  0.86551904  0.73873805    -0.20600
F1626       F  0.21363558  0.81908427  0.73305508    -0.21800
F1627       F  0.21626197  0.85798027  0.69133659    -0.19000
F1628       F  0.34733203  0.73795446  0.64315475    -0.19100
F1629       F  0.38075315  0.78472849  0.64929220    -0.22900
F1630       F  0.34418373  0.78025533  0.60481041    -0.24500
C1631       C  0.33972915  0.60398300  0.88277824    -0.11300
C1632       C  0.35836391  0.61947152  0.85624991     0.11300
C1633       C  0.39500159  0.61709318  0.85472888    -0.03100
C1634       C  0.41209914  0.59984644  0.88099298    -0.05900
C1635       C  0.39373792  0.58554085  0.90851853    -0.16600
C1636       C  0.35680423  0.58648654  0.90908788     0.02300
C1637       C  0.33908147  0.64153031  0.83273363     0.12200
C1638       C  0.41602873  0.63374766  0.82627273     0.62900
H1639       H  0.44027782  0.59850555  0.88080404     0.12300
C1640       C  0.33543325  0.57059792  0.93764479     0.55000
H1641       H  0.31166235  0.60684311  0.88322522     0.08100
C1642       C  0.31909242  0.62803979  0.80577407    -0.05800
C1643       C  0.30070798  0.65123799  0.78538660    -0.06500
C1644       C  0.30274143  0.68709555  0.79058887    -0.16100
C1645       C  0.32494327  0.70035418  0.81627378    -0.01700
C1646       C  0.34124291  0.67707927  0.83809274    -0.09200
C1647       C  0.31732337  0.58954571  0.79857165     0.65100
H1648       H  0.28461504  0.64140993  0.76506315     0.10500
C1649       C  0.33436631  0.73814652  0.81938218     0.63500
H1650       H  0.35675161  0.68656988  0.85917681     0.07900
F1651       F  0.30009270  0.57630091  0.93344365    -0.19600
F1652       F  0.34503703  0.58478545  0.96861692    -0.15800
F1653       F  0.34071840  0.53530609  0.93818362    -0.19300
F1654       F  0.41445358  0.66926287  0.82915037    -0.22700
F1655       F  0.40296011  0.62395117  0.79493079    -0.24200
F1656       F  0.45073658  0.62410838  0.82734421    -0.18200
F1657       F  0.30936220  0.75549451  0.83808085    -0.20600
F1658       F  0.33764887  0.75245610  0.78748304    -0.21800
F1659       F  0.36607416  0.74245771  0.83557509    -0.19000
F1660       F  0.29779537  0.58233058  0.76981044    -0.19100
F1661       F  0.30223637  0.57271247  0.82585170    -0.22900
F1662       F  0.35048680  0.57661022  0.79334316    -0.24500
C1663       C  0.40121176  0.65734196  0.62731826    -0.11300
C1664       C  0.38688609  0.63902383  0.65457325     0.11300
C1665       C  0.39342592  0.60330432  0.65800977    -0.03100
C1666       C  0.41305898  0.58656724  0.63267154    -0.05900
C1667       C  0.42613880  0.60444735  0.60436977    -0.16600
C1668       C  0.42106421  0.64079193  0.60196936     0.02300
C1669       C  0.36033664  0.65664416  0.67551956     0.12200
C1670       C  0.37939824  0.58301251  0.68814640     0.62900
H1671       H  0.41766612  0.55906061  0.63437910     0.12300
C1672       C  0.43485410  0.66211575  0.57235653     0.55000
H1673       H  0.39547410  0.68464355  0.62550893     0.08100
C1674       C  0.36791995  0.67960127  0.70246990    -0.05800
C1675       C  0.34000294  0.69466610  0.72021831    -0.06500
C1676       C  0.30494898  0.68669825  0.71302881    -0.16100
C1677       C  0.29781327  0.66340260  0.68571440    -0.01700
C1678       C  0.32579305  0.65020511  0.66670585    -0.09200
C1679       C  0.40440705  0.68925456  0.71376228     0.65100
H1680       H  0.34587457  0.71313398  0.74003235     0.10500
C1681       C  0.26204718  0.64894232  0.67822625     0.63500
H1682       H  0.32105195  0.63328509  0.64516114     0.07900
F1683       F  0.47084827  0.66221179  0.57279838    -0.19600
F1684       F  0.42383834  0.69611485  0.57410639    -0.15800
F1685       F  0.42321058  0.64862185  0.54175999    -0.19300
F1686       F  0.34341370  0.58300235  0.68794862    -0.22700
F1687       F  0.39089396  0.59786593  0.71815963    -0.24200
F1688       F  0.39046140  0.54900134  0.68744951    -0.18200
F1689       F  0.24060683  0.67346789  0.66411911    -0.20600
F1690       F  0.24802290  0.63683914  0.70796446    -0.21800
F1691       F  0.26338973  0.62140923  0.65563885    -0.19000
F1692       F  0.40877182  0.67973245  0.74741317    -0.19100
F1693       F  0.40848522  0.72461786  0.71130540    -0.22900
F1694       F  0.43034479  0.67363796  0.69469325    -0.24500
C1695       C  0.68711116  0.65856764  0.83041331    -0.11300
C1696       C  0.65304811  0.65955999  0.81821758     0.11300
C1697       C  0.64511303  0.67844373  0.78873542    -0.03100
C1698       C  0.67187767  0.69666307  0.77294456    -0.05900
C1699       C  0.70667465  0.69583684  0.78433164    -0.16600
C1700       C  0.71460178  0.67506112  0.81337808     0.02300
C1701       C  0.62675393  0.64059298  0.83771571     0.12200
C1702       C  0.60929170  0.68044475  0.77249843     0.62900
H1703       H  0.66475728  0.71149937  0.75099144     0.12300
C1704       C  0.75127647  0.66654923  0.82500741     0.55000
H1705       H  0.69201153  0.64368659  0.85323524     0.08100
C1706       C  0.62253382  0.60469223  0.83378243    -0.05800
C1707       C  0.60017866  0.58750161  0.85625959    -0.06500
C1708       C  0.58227118  0.60524478  0.88221862    -0.16100
C1709       C  0.58485048  0.64184060  0.88455755    -0.01700
C1710       C  0.60742215  0.65884595  0.86203371    -0.09200
C1711       C  0.64259190  0.58465344  0.80677207     0.65100
H1712       H  0.59769182  0.55970238  0.85464660     0.10500
C1713       C  0.56542366  0.66299409  0.91126293     0.63500
H1714       H  0.61114826  0.68649380  0.86381658     0.07900
F1715       F  0.75176170  0.64085077  0.84944970    -0.19600
F1716       F  0.76724343  0.69480768  0.83924826    -0.15800
F1717       F  0.77007235  0.65445611  0.79764918    -0.19300
F1718       F  0.61175628  0.67007706  0.73877201    -0.22700
F1719       F  0.59771231  0.71424129  0.77355593    -0.24200
F1720       F  0.58470203  0.65993654  0.78825107    -0.18200
F1721       F  0.57301484  0.69784501  0.90899522    -0.20600
F1722       F  0.57456155  0.65220959  0.94359931    -0.21800
F1723       F  0.52992975  0.65929032  0.90671689    -0.19000
F1724       F  0.63121371  0.55088527  0.80429421    -0.19100
F1725       F  0.67760933  0.58426061  0.81484636    -0.22900
F1726       F  0.63831607  0.59995436  0.77525726    -0.24500
C1727       C  0.68726807  0.65147050  0.67951058    -0.11300
C1728       C  0.66397524  0.67140937  0.66064182     0.11300
C1729       C  0.66257927  0.70742527  0.66526049    -0.03100
C1730       C  0.68665255  0.72273525  0.68726540    -0.05900
C1731       C  0.71074577  0.70308818  0.70579221    -0.16600
C1732       C  0.71163460  0.66673624  0.70126957     0.02300
C1733       C  0.64352604  0.65408999  0.63405796     0.12200
C1734       C  0.63555882  0.72938679  0.64733387     0.62900
H1735       H  0.68628294  0.75030146  0.69073795     0.12300
C1736       C  0.73850426  0.64294142  0.71661608     0.55000
H1737       H  0.68770088  0.62373617  0.67564387     0.08100
C1738       C  0.65845369  0.64630246  0.60193563    -0.05800
C1739       C  0.63786213  0.62957821  0.57772982    -0.06500
C1740       C  0.60344692  0.62018039  0.58489733    -0.16100
C1741       C  0.58859763  0.62743757  0.61719314    -0.01700
C1742       C  0.60915285  0.64455394  0.64146492    -0.09200
C1743       C  0.69610303  0.65497032  0.59346168     0.65100
H1744       H  0.64871060  0.62308796  0.55298602     0.10500
C1745       C  0.55208266  0.61577355  0.62646337     0.63500
H1746       H  0.59880800  0.65026949  0.66658236     0.07900
F1747       F  0.75382744  0.62336718  0.69106360    -0.19600
F1748       F  0.72251785  0.62110114  0.73962903    -0.15800
F1749       F  0.76458197  0.66056065  0.73282544    -0.19300
F1750       F  0.60252692  0.71850249  0.65627509    -0.22700
F1751       F  0.63961728  0.72660583  0.61240629    -0.24200
F1752       F  0.63831759  0.76378529  0.65631005    -0.18200
F1753       F  0.54377760  0.62357788  0.65999482    -0.20600
F1754       F  0.54937183  0.58043346  0.62219444    -0.21800
F1755       F  0.52813946  0.63203597  0.60579211    -0.19000
F1756       F  0.70477008  0.64587645  0.56033160    -0.19100
F1757       F  0.71811995  0.63723720  0.61500041    -0.22900
F1758       F  0.70162986  0.69001056  0.59717572    -0.24500
C1759       C  0.62686788  0.35364995  0.77436119    -0.11300
C1760       C  0.63922034  0.36628061  0.80534277     0.11300
C1761       C  0.67307217  0.35777082  0.81644504    -0.03100
C1762       C  0.69312849  0.33559385  0.79616176    -0.05900
C1763       C  0.67952525  0.31948652  0.76692880    -0.16600
C1764       C  0.64588973  0.32976795  0.75490697     0.02300
C1765       C  0.61401485  0.38336523  0.82806406     0.12200
C1766       C  0.68744488  0.37072831  0.85022552     0.62900
H1767       H  0.71938748  0.32934504  0.80396484     0.12300
C1768       C  0.62703804  0.31660897  0.72340076     0.55000
H1769       H  0.60076178  0.36076791  0.76649324     0.08100
C1770       C  0.60741092  0.41909343  0.82688272    -0.05800
C1771       C  0.58662181  0.43358958  0.85265041    -0.06500
C1772       C  0.57172055  0.41315325  0.87840626    -0.16100
C1773       C  0.57423973  0.37667512  0.87632770    -0.01700
C1774       C  0.59586284  0.36243136  0.85106472    -0.09200
C1775       C  0.62261466  0.44165169  0.79900234     0.65100
H1776       H  0.58313044  0.46131395  0.85375985     0.10500
C1777       C  0.55562608  0.35281186  0.90102388     0.63500
H1778       H  0.60005619  0.33479693  0.84985185     0.07900
F1779       F  0.62340316  0.34341637  0.70054019    -0.19600
F1780       F  0.59412639  0.30525208  0.73246863    -0.15800
F1781       F  0.64340442  0.28979234  0.70710747    -0.19300
F1782       F  0.66687224  0.35922668  0.87681503    -0.22700
F1783       F  0.68798076  0.40633971  0.85059820    -0.24200
F1784       F  0.72107102  0.35913108  0.85584446    -0.18200
F1785       F  0.56104771  0.31838969  0.89301233    -0.20600
F1786       F  0.52014132  0.35891869  0.89976455    -0.21800
F1787       F  0.56761940  0.35824118  0.93381014    -0.19000
F1788       F  0.61089912  0.47536095  0.80154417    -0.19100
F1789       F  0.61290703  0.42906296  0.76742271    -0.22900
F1790       F  0.65851345  0.44185508  0.80100029    -0.24500
C1791       C  0.68731277  0.34763953  0.64529658    -0.11300
C1792       C  0.69020633  0.37953850  0.66187962     0.11300
C1793       C  0.70598704  0.38174399  0.69404322    -0.03100
C1794       C  0.71667996  0.35112450  0.70950593    -0.05900
C1795       C  0.71014269  0.31835766  0.69497262    -0.16600
C1796       C  0.69853353  0.31687170  0.66057578     0.02300
C1797       C  0.67414844  0.40955957  0.64543565     0.12200
C1798       C  0.70949359  0.41590577  0.71287256     0.62900
H1799       H  0.72769326  0.35266083  0.73469256     0.12300
C1800       C  0.69885301  0.28419678  0.63914931     0.55000
H1801       H  0.67577395  0.34718235  0.62013994     0.08100
C1802       C  0.68927648  0.42521716  0.61647248    -0.05800
C1803       C  0.66885304  0.44805954  0.59744800    -0.06500
C1804       C  0.63398123  0.45414395  0.60615327    -0.16100
C1805       C  0.62039197  0.44191934  0.63732615    -0.01700
C1806       C  0.64069747  0.41914656  0.65633867    -0.09200
C1807       C  0.72582800  0.41614425  0.60448783     0.65100
H1808       H  0.67868347  0.45806365  0.57353135     0.10500
C1809       C  0.58438675  0.45111293  0.65073104     0.63500
H1810       H  0.62962809  0.40737694  0.67892299     0.07900
F1811       F  0.73294240  0.27453734  0.63285115    -0.19600
F1812       F  0.68302341  0.28894456  0.60783316    -0.15800
F1813       F  0.68143347  0.25801328  0.65546089    -0.19300
F1814       F  0.67688615  0.42829440  0.72156185    -0.22700
F1815       F  0.72606837  0.43979545  0.69244822    -0.24200
F1816       F  0.72856203  0.41257144  0.74256151    -0.18200
F1817       F  0.56356390  0.42203571  0.65047825    -0.20600
F1818       F  0.56835707  0.47665619  0.63184001    -0.21800
F1819       F  0.58713922  0.46304435  0.68389874    -0.19000
F1820       F  0.73608438  0.43628297  0.57718602    -0.19100
F1821       F  0.72731491  0.38200485  0.59432482    -0.22900
F1822       F  0.74924113  0.42135479  0.63062668    -0.24500
C1823       C  0.34542440  0.39158530  0.89146217    -0.11300
C1824       C  0.36514178  0.38092062  0.86323515     0.11300
C1825       C  0.40107155  0.38843926  0.86134491    -0.03100
C1826       C  0.41646562  0.40555210  0.88879889    -0.05900
C1827       C  0.39708100  0.41488493  0.91771403    -0.16600
C1828       C  0.36107536  0.40765025  0.91951264     0.02300
C1829       C  0.34721252  0.36055051  0.83695854     0.12200
C1830       C  0.42293250  0.37861706  0.83060856     0.62900
H1831       H  0.44400043  0.41159079  0.88803742     0.12300
C1832       C  0.33988599  0.41450571  0.95154606     0.55000
H1833       H  0.31783526  0.38576812  0.89186553     0.08100
C1834       C  0.34005601  0.32526273  0.84167719    -0.05800
C1835       C  0.32056397  0.30797412  0.81683391    -0.06500
C1836       C  0.30613416  0.32508253  0.78855332    -0.16100
C1837       C  0.31242502  0.36133692  0.78502015    -0.01700
C1838       C  0.33396122  0.37785851  0.80878076    -0.09200
C1839       C  0.35227068  0.30617117  0.87326696     0.65100
H1840       H  0.31632161  0.28064446  0.81971016     0.10500
C1841       C  0.29698250  0.38499566  0.75838352     0.63500
H1842       H  0.33914240  0.40525522  0.80629029     0.07900
F1843       F  0.35575976  0.39889595  0.97911377    -0.19600
F1844       F  0.30644972  0.40144889  0.94897448    -0.15800
F1845       F  0.33739601  0.44960240  0.95735412    -0.19300
F1846       F  0.41071694  0.39606851  0.80246854    -0.22700
F1847       F  0.42087198  0.34350766  0.82494775    -0.24200
F1848       F  0.45771713  0.38699260  0.83488132    -0.18200
F1849       F  0.28066503  0.41252453  0.77437833    -0.20600
F1850       F  0.27281486  0.36912309  0.73825295    -0.21800
F1851       F  0.32328889  0.39773176  0.73782515    -0.19000
F1852       F  0.34463667  0.27138395  0.87152040    -0.19100
F1853       F  0.33589294  0.31951298  0.90185614    -0.22900
F1854       F  0.38788322  0.30954744  0.87697094    -0.24500
C1855       C  0.34405938  0.35656030  0.66543917    -0.11300
C1856       C  0.37655004  0.35637840  0.68112262     0.11300
C1857       C  0.38107189  0.33977585  0.71250704    -0.03100
C1858       C  0.35273973  0.32186918  0.72645447    -0.05900
C1859       C  0.31940843  0.32164867  0.71108165    -0.16600
C1860       C  0.31510757  0.34023434  0.67994413     0.02300
C1861       C  0.40528480  0.37397100  0.66352489     0.12200
C1862       C  0.41548643  0.34176675  0.73132043     0.62900
H1863       H  0.35678491  0.30750341  0.74964879     0.12300
C1864       C  0.28149393  0.34539990  0.66066620     0.55000
H1865       H  0.34121959  0.37022653  0.64149605     0.08100
C1866       C  0.42317237  0.35792376  0.63617842    -0.05800
C1867       C  0.44636895  0.37783542  0.61692026    -0.06500
C1868       C  0.45112580  0.41298952  0.62395952    -0.16100
C1869       C  0.43571291  0.42811569  0.65310751    -0.01700
C1870       C  0.41237420  0.40832156  0.67234160    -0.09200
C1871       C  0.41620397  0.32061342  0.62622633     0.65100
H1872       H  0.45865214  0.36682858  0.59447334     0.10500
C1873       C  0.44267755  0.46530374  0.66303360     0.63500
H1874       H  0.39828309  0.42002972  0.69340162     0.07900
F1875       F  0.27582473  0.38031808  0.65589056    -0.19600
F1876       F  0.25309479  0.33261316  0.67727231    -0.15800
F1877       F  0.28414262  0.32962875  0.62909962    -0.19300
F1878       F  0.42225180  0.37570674  0.73981271    -0.22700
F1879       F  0.44232343  0.32962241  0.71102679    -0.24200
F1880       F  0.41498707  0.32250665  0.76089308    -0.18200
F1881       F  0.42213965  0.48698590  0.64369791    -0.20600
F1882       F  0.47738523  0.47334104  0.65772159    -0.21800
F1883       F  0.43527404  0.47098269  0.69716460    -0.19000
F1884       F  0.43838512  0.30946167  0.60056195    -0.19100
F1885       F  0.38238774  0.31722103  0.61474347    -0.22900
F1886       F  0.42090652  0.29932100  0.65400509    -0.24500
loop_ 
_geom_bond_atom_site_label_1 
_geom_bond_atom_site_label_2 
_geom_bond_distance 
_geom_bond_site_symmetry_2 
_ccdc_geom_bond_type 
N1            N2   1.322       .  A
N1            N7   1.313       .  A
N1         Mn973   2.195   1_554  S
N2            C9   1.353       .  A
N3            N5   1.314       .  A
N3            N4   1.320       .  A
N3         Mn962   2.203       .  S
N4           C10   1.353       .  A
N5            N6   1.316       .  A
N5          Mn30   2.172       .  S
N6           C10   1.347       .  A
N7            N8   1.310       .  A
N7          Mn19   2.152       .  S
N8            C9   1.342       .  A
C9          C861   1.448       .  S
C10         C829   1.460       .  S
N11          N17   1.315       .  A
N11          N12   1.319       .  A
N11        Mn984   2.204       .  S
N12          C20   1.352       .  A
N13          N14   1.319       .  A
N13          N15   1.314       .  A
N13         Mn19   2.198       .  S
N14          C21   1.353       .  A
N15          N16   1.319       .  A
N15         Mn41   2.192       .  S
N16          C21   1.352       .  A
N17          N18   1.316       .  A
N17        Mn962   2.171       .  S
N18          C20   1.347       .  A
Mn19        N946   2.200   1_554  S
Mn19        N960   2.160   1_554  S
Mn19        Cl43   2.519       .  S
C20         C884   1.459       .  S
C21         C925   1.471       .  S
N22          N23   1.312       .  A
N22          N28   1.311       .  A
N22         Mn30   2.166       .  S
N23          C31   1.349       .  A
N24          N26   1.313       .  A
N24          N25   1.313       .  A
N24        Mn985   2.166   1_554  S
N25          C32   1.345       .  A
N26          N27   1.318       .  A
N26        Mn973   2.186   1_554  S
N27          C32   1.354       .  A
N28          N29   1.317       .  A
N28         Mn42   2.173       .  S
N29          C31   1.350       .  A
Mn30        N944   2.174       .  S
Mn30        N969   2.168       .  S
Mn30       Cl986   2.533       .  S
C31         C765   1.464       .  S
C32         C797   1.459       .  S
N33          N34   1.318       .  A
N33          N39   1.311       .  A
N33         Mn41   2.185       .  S
N34          C44   1.355       .  A
N35          N36   1.316       .  A
N35          N37   1.314       .  A
N35         Mn42   2.189       .  S
N36          C45   1.352       .  A
N37          N38   1.320       .  A
N37        Mn984   2.195       .  S
N38          C45   1.353       .  A
N39          N40   1.311       .  A
N39        Mn985   2.149   1_554  S
N40          C44   1.342       .  A
Mn41        N954   2.187   1_554  S
Mn41        N980   2.186   1_554  S
Mn41        Cl43   2.545       .  S
Mn42        N967   2.192       .  S
Mn42        N982   2.164       .  S
Mn42       Cl986   2.530       .  S
Cl43       Mn973   2.544   1_554  S
Cl43       Mn985   2.518   1_554  S
C44         C724   1.459       .  S
C45         C692   1.479       .  S
N46          N47   1.325       .  A
N46          N52   1.320       .  A
N46         Mn75   2.232   1_554  S
N47          C54   1.359       .  A
N48          N50   1.320       .  A
N48          N49   1.323       .  A
N48         Mn64   2.226   1_545  S
N49          C55   1.354       .  A
N50          N51   1.327       .  A
N50         Mn75   2.234   1_544  S
N51          C55   1.359       .  A
N52          N53   1.320       .  A
N52         Mn64   2.221       .  S
N53          C54   1.353       .  A
C54         C660   1.508       .  S
C55         C509   1.513       .  S
N56          N62   1.318       .  A
N56          N57   1.319       .  A
N56         Mn86   2.202   1_544  S
N57          C65   1.352       .  A
N58          N59   1.327       .  A
N58          N60   1.317       .  A
N58         Mn64   2.235       .  S
N59          C66   1.358       .  A
N60          N61   1.326       .  A
N60         Mn86   2.224   1_554  S
N61          C66   1.356       .  A
N62          N63   1.327       .  A
N62         Mn64   2.237   1_545  S
N63          C65   1.360       .  A
Mn64        Cl88   2.562   1_554  S
C65         C477   1.503       .  S
C66         C573   1.509       .  S
N67          N68   1.329       .  A
N67          N73   1.320       .  A
N67       Mn1018   2.251   1_545  S
N68          C76   1.360       .  A
N69          N71   1.319       .  A
N69          N70   1.325       .  A
N69         Mn87   2.227       .  S
N70          C77   1.355       .  A
N71          N72   1.326       .  A
N71       Mn1018   2.228       .  S
N72          C77   1.355       .  A
N73          N74   1.322       .  A
N73         Mn87   2.212   1_545  S
N74          C76   1.351       .  A
Mn75       N1010   2.243   1_565  S
Mn75       N1014   2.239       .  S
Mn75        Cl88   2.573       .  S
C76         C541   1.498       .  S
C77         C628   1.493       .  S
N78          N79   1.320       .  A
N78          N84   1.317       .  A
N78       Mn1029   2.207       .  S
N79          C89   1.355       .  A
N80          N81   1.325       .  A
N80          N82   1.318       .  A
N80         Mn87   2.225   1_545  S
N81          C90   1.355       .  A
N82          N83   1.324       .  A
N82       Mn1029   2.219   1_545  S
N83          C90   1.354       .  A
N84          N85   1.321       .  A
N84         Mn87   2.213       .  S
N85          C89   1.354       .  A
Mn86       N1021   2.202       .  S
Mn86       N1025   2.216   1_565  S
Mn86        Cl88   2.556       .  S
Mn87      Cl1031   2.560       .  S
Cl88      Mn1030   2.563       .  S
C89         C596   1.496       .  S
C90         C445   1.491       .  S
N91          N92   1.321       .  A
N91          N97   1.320       .  A
N91        Mn120   2.207       .  S
N92          C99   1.349       .  A
N93          N95   1.317       .  A
N93          N94   1.322       .  A
N93        Mn109   2.216   1_455  S
N94         C100   1.354       .  A
N95          N96   1.324       .  A
N95        Mn120   2.218   1_455  S
N96         C100   1.355       .  A
N97          N98   1.329       .  A
N97        Mn109   2.260       .  S
N98          C99   1.362       .  A
C99         C413   1.496       .  S
C100        C180   1.493       .  S
N101        N107   1.319       .  A
N101        N102   1.325       .  A
N101       Mn131   2.219   1_455  S
N102        C110   1.354       .  A
N103        N104   1.327       .  A
N103        N105   1.321       .  A
N103       Mn109   2.235       .  S
N104        C111   1.356       .  A
N105        N106   1.327       .  A
N105       Mn131   2.235       .  S
N106        C111   1.355       .  A
N107        N108   1.325       .  A
N107       Mn109   2.238   1_455  S
N108        C110   1.357       .  A
Mn109      Cl133   2.572       .  S
C110        C285   1.492       .  S
C111        C308   1.500       .  S
N112        N113   1.323       .  A
N112        N118   1.318       .  A
N112      Mn1063   2.218   1_455  S
N113        C121   1.356       .  A
N114        N116   1.319       .  A
N114        N115   1.327       .  A
N114       Mn132   2.234       .  S
N115        C122   1.358       .  A
N116        N117   1.323       .  A
N116      Mn1063   2.219       .  S
N117        C122   1.354       .  A
N118        N119   1.322       .  A
N118       Mn132   2.223   1_455  S
N119        C121   1.355       .  A
Mn120      N1055   2.201   1_654  S
Mn120      N1059   2.219   1_554  S
Mn120      Cl133   2.553       .  S
C121        C221   1.499       .  S
C122        C381   1.503       .  S
N123        N124   1.314       .  A
N123        N129   1.318       .  A
N123      Mn1074   2.193       .  S
N124        C134   1.345       .  A
N125        N126   1.323       .  A
N125        N127   1.317       .  A
N125       Mn132   2.218   1_455  S
N126        C135   1.355       .  A
N127        N128   1.322       .  A
N127      Mn1074   2.216   1_455  S
N128        C135   1.356       .  A
N129        N130   1.329       .  A
N129       Mn132   2.235       .  S
N130        C134   1.361       .  A
Mn131      N1066   2.219   1_554  S
Mn131      N1070   2.223   1_654  S
Mn131      Cl133   2.553       .  S
Mn132     Cl1076   2.578       .  S
Cl133     Mn1075   2.573   1_554  S
C134        C340   1.495       .  S
C135        C253   1.502       .  S
C136        H137   1.098       .  S
C136        C142   1.558       .  S
C136        C141   1.557       .  S
C136        C140   1.572       .  S
C138        H139   1.103       .  S
C138        C144   1.563       .  S
C138        C143   1.523       .  S
C138        C145   1.547       .  S
C140        C143   1.407       .  D
C140        C916   1.534       .  S
C141        C144   1.374       .  D
C141        C276   1.526       .  S
C142        C145   1.383       .  D
C142        C500   1.529       .  S
C143        C893   1.502       .  S
C144        C244   1.520       .  S
C145        C532   1.511       .  S
C146        H147   1.108       .  S
C146        C152   1.554       .  S
C146        C151   1.556       .  S
C146        C150   1.537       .  S
C148        H149   1.082       .  S
C148        C154   1.548       .  S
C148        C153   1.538       .  S
C148        C155   1.561       .  S
C150        C153   1.371       .  D
C150        C852   1.494       .  S
C151        C154   1.386       .  D
C151        C468   1.515       .  S
C152        C155   1.407       .  D
C152        C317   1.522       .  S
C153        C820   1.493       .  S
C154        C436   1.520       .  S
C155        C349   1.549       .  S
C156        H157   1.102       .  S
C156        C162   1.546       .  S
C156        C161   1.542       .  S
C156        C160   1.531       .  S
C158        H159   1.101       .  S
C158        C164   1.554       .  S
C158        C163   1.547       .  S
C158        C165   1.551       .  S
C160        C163   1.379       .  D
C160        C733   1.488       .  S
C161        C164   1.384       .  D
C161        C669   1.512       .  S
C162        C165   1.385       .  D
C162        C189   1.506       .  S
C163        C701   1.509       .  S
C164        C637   1.514       .  S
C165        C212   1.515       .  S
C166        H167   1.111       .  S
C166        C172   1.556       .  S
C166        C171   1.550       .  S
C166        C170   1.528       .  S
C168        H169   1.101       .  S
C168        C174   1.560       .  S
C168        C173   1.555       .  S
C168        C175   1.547       .  S
C170        C173   1.376       .  D
C170        C788   1.491       .  S
C171        C174   1.401       .  D
C171        C404   1.510       .  S
C172        C175   1.381       .  D
C172        C564   1.530       .  S
C173        C756   1.503       .  S
C174        C372   1.545       .  S
C175        C605   1.507       .  S
C176        C177   1.402       .  A
C176        C181   1.402       .  A
C176        H186   1.084       .  S
C177        C182   1.495       .  S
C177        C178   1.425       .  A
C178        C179   1.414       .  A
C178        C183   1.519       .  S
C179        C180   1.406       .  A
C179        H184   1.084       .  S
C180        C181   1.420       .  A
C181        C185   1.514       .  S
C182        C187   1.420       .  A
C182        C191   1.399       .  A
C183        F199   1.380       .  S
C183        F200   1.383       .  S
C183        F201   1.384       .  S
C185        F196   1.385       .  S
C185        F197   1.382       .  S
C185        F198   1.372       .  S
C187        C188   1.412       .  A
C187        C192   1.518       .  S
C188        C189   1.410       .  A
C188        H193   1.085       .  S
C189        C190   1.431       .  A
C190        C191   1.401       .  A
C190        C194   1.520       .  S
C191        H195   1.085       .  S
C192        F205   1.383       .  S
C192        F206   1.383       .  S
C192        F207   1.381       .  S
C194        F202   1.380       .  S
C194        F203   1.368       .  S
C194        F204   1.386       .  S
C208        C209   1.406       .  A
C208        C213   1.415       .  A
C208        H218   1.084       .  S
C209        C214   1.497       .  S
C209        C210   1.414       .  A
C210        C211   1.404       .  A
C210        C215   1.521       .  S
C211        C212   1.412       .  A
C211        H216   1.079       .  S
C212        C213   1.425       .  A
C213        C217   1.516       .  S
C214        C219   1.415       .  A
C214        C223   1.404       .  A
C215        F231   1.381       .  S
C215        F232   1.383       .  S
C215        F233   1.385       .  S
C217        F228   1.384       .  S
C217        F229   1.383       .  S
C217        F230   1.381       .  S
C219        C220   1.411       .  A
C219        C224   1.519       .  S
C220        C221   1.409       .  A
C220        H225   1.082       .  S
C221        C222   1.423       .  A
C222        C223   1.413       .  A
C222        C226   1.520       .  S
C223        H227   1.083       .  S
C224        F237   1.384       .  S
C224        F238   1.382       .  S
C224        F239   1.383       .  S
C226        F234   1.382       .  S
C226        F235   1.384       .  S
C226        F236   1.385       .  S
C240        C241   1.389       .  A
C240        C245   1.398       .  A
C240        H250   1.087       .  S
C241        C246   1.494       .  S
C241        C242   1.416       .  A
C242        C243   1.422       .  A
C242        C247   1.515       .  S
C243        C244   1.411       .  A
C243        H248   1.082       .  S
C244        C245   1.443       .  A
C245        C249   1.521       .  S
C246        C251   1.418       .  A
C246        C255   1.404       .  A
C247        F263   1.383       .  S
C247        F264   1.380       .  S
C247        F265   1.384       .  S
C249        F260   1.384       .  S
C249        F261   1.383       .  S
C249        F262   1.359       .  S
C251        C252   1.410       .  A
C251        C256   1.522       .  S
C252        C253   1.407       .  A
C252        H257   1.082       .  S
C253        C254   1.426       .  A
C254        C255   1.414       .  A
C254        C258   1.520       .  S
C255        H259   1.083       .  S
C256        F269   1.385       .  S
C256        F270   1.382       .  S
C256        F271   1.380       .  S
C258        F266   1.385       .  S
C258        F267   1.383       .  S
C258        F268   1.383       .  S
C272        C273   1.404       .  A
C272        C277   1.418       .  A
C272        H282   1.083       .  S
C273        C278   1.500       .  S
C273        C274   1.412       .  A
C274        C275   1.409       .  A
C274        C279   1.521       .  S
C275        C276   1.411       .  A
C275        H280   1.068       .  S
C276        C277   1.425       .  A
C277        C281   1.515       .  S
C278        C283   1.419       .  A
C278        C287   1.402       .  A
C279        F295   1.382       .  S
C279        F296   1.382       .  S
C279        F297   1.384       .  S
C281        F292   1.379       .  S
C281        F293   1.384       .  S
C281        F294   1.384       .  S
C283        C284   1.416       .  A
C283        C288   1.518       .  S
C284        C285   1.405       .  A
C284        H289   1.083       .  S
C285        C286   1.417       .  A
C286        C287   1.413       .  A
C286        C290   1.515       .  S
C287        H291   1.083       .  S
C288        F301   1.384       .  S
C288        F302   1.383       .  S
C288        F303   1.382       .  S
C290        F298   1.381       .  S
C290        F299   1.384       .  S
C290        F300   1.383       .  S
C304        C305   1.407       .  A
C304        C309   1.415       .  A
C304        H314   1.082       .  S
C305        C310   1.505       .  S
C305        C306   1.416       .  A
C306        C307   1.420       .  A
C306        C311   1.518       .  S
C307        C308   1.410       .  A
C307        H312   1.083       .  S
C308        C309   1.416       .  A
C309        C313   1.516       .  S
C310        C315   1.418       .  A
C310        C319   1.406       .  A
C311        F327   1.383       .  S
C311        F328   1.380       .  S
C311        F329   1.379       .  S
C313        F324   1.385       .  S
C313        F325   1.383       .  S
C313        F326   1.383       .  S
C315        C316   1.416       .  A
C315        C320   1.522       .  S
C316        C317   1.410       .  A
C316        H321   1.081       .  S
C317        C318   1.422       .  A
C318        C319   1.415       .  A
C318        C322   1.515       .  S
C319        H323   1.084       .  S
C320        F333   1.382       .  S
C320        F334   1.382       .  S
C320        F335   1.380       .  S
C322        F330   1.383       .  S
C322        F331   1.382       .  S
C322        F332   1.384       .  S
C336        C337   1.399       .  A
C336        C341   1.407       .  A
C336        H346   1.083       .  S
C337        C342   1.494       .  S
C337        C338   1.423       .  A
C338        C339   1.412       .  A
C338        C343   1.520       .  S
C339        C340   1.404       .  A
C339        H344   1.084       .  S
C340        C341   1.428       .  A
C341        C345   1.523       .  S
C342        C347   1.412       .  A
C342        C351   1.394       .  A
C343        F359   1.383       .  S
C343        F360   1.380       .  S
C343        F361   1.383       .  S
C345        F356   1.384       .  S
C345        F357   1.383       .  S
C345        F358   1.384       .  S
C347        C348   1.412       .  A
C347        C352   1.519       .  S
C348        C349   1.414       .  A
C348        H353   1.080       .  S
C349        C350   1.446       .  A
C350        C351   1.413       .  A
C350        C354   1.522       .  S
C351        H355   1.083       .  S
C352        F365   1.384       .  S
C352        F366   1.381       .  S
C352        F367   1.384       .  S
C354        F362   1.386       .  S
C354        F363   1.383       .  S
C354        F364   1.378       .  S
C368        C369   1.404       .  A
C368        C373   1.413       .  A
C368        H378   1.083       .  S
C369        C374   1.506       .  S
C369        C370   1.419       .  A
C370        C371   1.418       .  A
C370        C375   1.520       .  S
C371        C372   1.411       .  A
C371        H376   1.073       .  S
C372        C373   1.424       .  A
C373        C377   1.515       .  S
C374        C379   1.418       .  A
C374        C383   1.408       .  A
C375        F391   1.382       .  S
C375        F392   1.382       .  S
C375        F393   1.384       .  S
C377        F388   1.382       .  S
C377        F389   1.384       .  S
C377        F390   1.382       .  S
C379        C380   1.413       .  A
C379        C384   1.519       .  S
C380        C381   1.409       .  A
C380        H385   1.082       .  S
C381        C382   1.421       .  A
C382        C383   1.418       .  A
C382        C386   1.518       .  S
C383        H387   1.083       .  S
C384        F397   1.384       .  S
C384        F398   1.382       .  S
C384        F399   1.382       .  S
C386        F394   1.384       .  S
C386        F395   1.382       .  S
C386        F396   1.385       .  S
C400        C401   1.407       .  A
C400        C405   1.416       .  A
C400        H410   1.084       .  S
C401        C406   1.495       .  S
C401        C402   1.413       .  A
C402        C403   1.403       .  A
C402        C407   1.522       .  S
C403        C404   1.407       .  A
C403        H408   1.073       .  S
C404        C405   1.422       .  A
C405        C409   1.517       .  S
C406        C411   1.418       .  A
C406        C415   1.397       .  A
C407        F423   1.381       .  S
C407        F424   1.382       .  S
C407        F425   1.384       .  S
C409        F420   1.383       .  S
C409        F421   1.382       .  S
C409        F422   1.383       .  S
C411        C412   1.418       .  A
C411        C416   1.516       .  S
C412        C413   1.407       .  A
C412        H417   1.083       .  S
C413        C414   1.418       .  A
C414        C415   1.407       .  A
C414        C418   1.508       .  S
C415        H419   1.083       .  S
C416        F429   1.384       .  S
C416        F430   1.383       .  S
C416        F431   1.382       .  S
C418        F426   1.384       .  S
C418        F427   1.382       .  S
C418        F428   1.385       .  S
C432        C433   1.398       .  A
C432        C437   1.412       .  A
C432        H442   1.085       .  S
C433        C438   1.503       .  S
C433        C434   1.415       .  A
C434        C435   1.415       .  A
C434        C439   1.517       .  S
C435        C436   1.412       .  A
C435        H440   1.083       .  S
C436        C437   1.434       .  A
C437        C441   1.513       .  S
C438        C443   1.422       .  A
C438        C447   1.404       .  A
C439        F455   1.382       .  S
C439        F456   1.382       .  S
C439        F457   1.384       .  S
C441        F452   1.384       .  S
C441        F453   1.381       .  S
C441        F454   1.369       .  S
C443        C444   1.416       .  A
C443        C448   1.519       .  S
C444        C445   1.403       .  A
C444        H449   1.083       .  S
C445        C446   1.418       .  A
C446        C447   1.413       .  A
C446        C450   1.518       .  S
C447        H451   1.083       .  S
C448        F461   1.385       .  S
C448        F462   1.382       .  S
C448        F463   1.382       .  S
C450        F458   1.383       .  S
C450        F459   1.383       .  S
C450        F460   1.384       .  S
C464        C465   1.407       .  A
C464        C469   1.415       .  A
C464        H474   1.084       .  S
C465        C470   1.496       .  S
C465        C466   1.416       .  A
C466        C467   1.405       .  A
C466        C471   1.520       .  S
C467        C468   1.411       .  A
C467        H472   1.081       .  S
C468        C469   1.423       .  A
C469        C473   1.514       .  S
C470        C475   1.414       .  A
C470        C479   1.405       .  A
C471        F487   1.383       .  S
C471        F488   1.381       .  S
C471        F489   1.384       .  S
C473        F484   1.383       .  S
C473        F485   1.383       .  S
C473        F486   1.381       .  S
C475        C476   1.410       .  A
C475        C480   1.518       .  S
C476        C477   1.412       .  A
C476        H481   1.082       .  S
C477        C478   1.422       .  A
C478        C479   1.414       .  A
C478        C482   1.518       .  S
C479        H483   1.083       .  S
C480        F493   1.385       .  S
C480        F494   1.382       .  S
C480        F495   1.383       .  S
C482        F490   1.385       .  S
C482        F491   1.382       .  S
C482        F492   1.384       .  S
C496        C497   1.396       .  A
C496        C501   1.411       .  A
C496        H506   1.083       .  S
C497        C502   1.501       .  S
C497        C498   1.419       .  A
C498        C499   1.417       .  A
C498        C503   1.516       .  S
C499        C500   1.413       .  A
C499        H504   1.084       .  S
C500        C501   1.432       .  A
C501        C505   1.512       .  S
C502        C507   1.415       .  A
C502        C511   1.400       .  A
C503        F519   1.384       .  S
C503        F520   1.382       .  S
C503        F521   1.382       .  S
C505        F516   1.377       .  S
C505        F517   1.384       .  S
C505        F518   1.374       .  S
C507        C508   1.417       .  A
C507        C512   1.517       .  S
C508        C509   1.412       .  A
C508        H513   1.082       .  S
C509        C510   1.430       .  A
C510        C511   1.413       .  A
C510        C514   1.520       .  S
C511        H515   1.083       .  S
C512        F525   1.385       .  S
C512        F526   1.382       .  S
C512        F527   1.383       .  S
C514        F522   1.385       .  S
C514        F523   1.382       .  S
C514        F524   1.384       .  S
C528        C529   1.405       .  A
C528        C533   1.414       .  A
C528        H538   1.084       .  S
C529        C534   1.504       .  S
C529        C530   1.417       .  A
C530        C531   1.412       .  A
C530        C535   1.519       .  S
C531        C532   1.409       .  A
C531        H536   1.078       .  S
C532        C533   1.421       .  A
C533        C537   1.516       .  S
C534        C539   1.421       .  A
C534        C543   1.403       .  A
C535        F551   1.382       .  S
C535        F552   1.382       .  S
C535        F553   1.385       .  S
C537        F548   1.383       .  S
C537        F549   1.383       .  S
C537        F550   1.381       .  S
C539        C540   1.417       .  A
C539        C544   1.519       .  S
C540        C541   1.405       .  A
C540        H545   1.083       .  S
C541        C542   1.422       .  A
C542        C543   1.414       .  A
C542        C546   1.519       .  S
C543        H547   1.083       .  S
C544        F557   1.384       .  S
C544        F558   1.382       .  S
C544        F559   1.383       .  S
C546        F554   1.385       .  S
C546        F555   1.383       .  S
C546        F556   1.382       .  S
C560        C561   1.396       .  A
C560        C565   1.412       .  A
C560        H570   1.085       .  S
C561        C566   1.512       .  S
C561        C562   1.419       .  A
C562        C563   1.424       .  A
C562        C567   1.516       .  S
C563        C564   1.412       .  A
C563        H568   1.082       .  S
C564        C565   1.437       .  A
C565        C569   1.513       .  S
C566        C571   1.426       .  A
C566        C575   1.408       .  A
C567        F583   1.383       .  S
C567        F584   1.381       .  S
C567        F585   1.384       .  S
C569        F580   1.384       .  S
C569        F581   1.384       .  S
C569        F582   1.361       .  S
C571        C572   1.416       .  A
C571        C576   1.519       .  S
C572        C573   1.406       .  A
C572        H577   1.085       .  S
C573        C574   1.424       .  A
C574        C575   1.419       .  A
C574        C578   1.519       .  S
C575        H579   1.083       .  S
C576        F589   1.384       .  S
C576        F590   1.383       .  S
C576        F591   1.380       .  S
C578        F586   1.383       .  S
C578        F587   1.384       .  S
C578        F588   1.384       .  S
C592        C593   1.402       .  A
C592        C597   1.410       .  A
C592        H602   1.083       .  S
C593        C598   1.490       .  S
C593        C594   1.415       .  A
C594        C595   1.408       .  A
C594        C599   1.520       .  S
C595        C596   1.410       .  A
C595        H600   1.082       .  S
C596        C597   1.424       .  A
C597        C601   1.520       .  S
C598        C603   1.413       .  A
C598        C607   1.404       .  A
C599        F615   1.382       .  S
C599        F616   1.382       .  S
C599        F617   1.385       .  S
C601        F612   1.384       .  S
C601        F613   1.385       .  S
C601        F614   1.382       .  S
C603        C604   1.405       .  A
C603        C608   1.522       .  S
C604        C605   1.411       .  A
C604        H609   1.081       .  S
C605        C606   1.422       .  A
C606        C607   1.411       .  A
C606        C610   1.517       .  S
C607        H611   1.084       .  S
C608        F621   1.384       .  S
C608        F622   1.382       .  S
C608        F623   1.383       .  S
C610        F618   1.382       .  S
C610        F619   1.381       .  S
C610        F620   1.384       .  S
C624        C625   1.408       .  A
C624        C629   1.416       .  A
C624        H634   1.083       .  S
C625        C630   1.504       .  S
C625        C626   1.421       .  A
C626        C627   1.415       .  A
C626        C631   1.519       .  S
C627        C628   1.404       .  A
C627        H632   1.084       .  S
C628        C629   1.415       .  A
C629        C633   1.516       .  S
C630        C635   1.417       .  A
C630        C639   1.404       .  A
C631        F647   1.382       .  S
C631        F648   1.382       .  S
C631        F649   1.385       .  S
C633        F644   1.383       .  S
C633        F645   1.384       .  S
C633        F646   1.383       .  S
C635        C636   1.413       .  A
C635        C640   1.519       .  S
C636        C637   1.411       .  A
C636        H641   1.081       .  S
C637        C638   1.425       .  A
C638        C639   1.415       .  A
C638        C642   1.518       .  S
C639        H643   1.084       .  S
C640        F653   1.385       .  S
C640        F654   1.383       .  S
C640        F655   1.382       .  S
C642        F650   1.383       .  S
C642        F651   1.380       .  S
C642        F652   1.383       .  S
C656        C657   1.400       .  A
C656        C661   1.412       .  A
C656        H666   1.083       .  S
C657        C662   1.497       .  S
C657        C658   1.415       .  A
C658        C659   1.413       .  A
C658        C663   1.519       .  S
C659        C660   1.412       .  A
C659        H664   1.082       .  S
C660        C661   1.430       .  A
C661        C665   1.521       .  S
C662        C667   1.414       .  A
C662        C671   1.407       .  A
C663        F679   1.382       .  S
C663        F680   1.382       .  S
C663        F681   1.385       .  S
C665        F676   1.384       .  S
C665        F677   1.385       .  S
C665        F678   1.383       .  S
C667        C668   1.406       .  A
C667        C672   1.523       .  S
C668        C669   1.410       .  A
C668        H673   1.075       .  S
C669        C670   1.421       .  A
C670        C671   1.416       .  A
C670        C674   1.516       .  S
C671        H675   1.084       .  S
C672        F685   1.385       .  S
C672        F686   1.381       .  S
C672        F687   1.382       .  S
C674        F682   1.382       .  S
C674        F683   1.382       .  S
C674        F684   1.384       .  S
C688        C689   1.401       .  A
C688        C693   1.407       .  A
C688        H698   1.083       .  S
C689        C694   1.472       .  S
C689        C690   1.416       .  A
C690        C691   1.397       .  A
C690        C695   1.522       .  S
C691        C692   1.403       .  A
C691        H696   1.085       .  S
C692        C693   1.421       .  A
C693        C697   1.518       .  S
C694        C699   1.406       .  A
C694        C703   1.396       .  A
C695        F711   1.380       .  S
C695        F712   1.383       .  S
C695        F713   1.384       .  S
C697        F708   1.385       .  S
C697        F709   1.383       .  S
C697        F710   1.383       .  S
C699        C700   1.403       .  A
C699        C704   1.519       .  S
C700        C701   1.416       .  A
C700        H705   1.078       .  S
C701        C702   1.424       .  A
C702        C703   1.402       .  A
C702        C706   1.514       .  S
C703        H707   1.084       .  S
C704        F717   1.385       .  S
C704        F718   1.382       .  S
C704        F719   1.383       .  S
C706        F714   1.379       .  S
C706        F715   1.372       .  S
C706        F716   1.385       .  S
C720        C721   1.396       .  A
C720        C725   1.397       .  A
C720        H730   1.084       .  S
C721        C726   1.459       .  S
C721        C722   1.412       .  A
C722        C723   1.394       .  A
C722        C727   1.515       .  S
C723        C724   1.399       .  A
C723        H728   1.085       .  S
C724        C725   1.421       .  A
C725        C729   1.523       .  S
C726        C731   1.402       .  A
C726        C735   1.397       .  A
C727        F743   1.383       .  S
C727        F744   1.380       .  S
C727        F745   1.384       .  S
C729        F740   1.381       .  S
C729        F741   1.385       .  S
C729        F742   1.384       .  S
C731        C732   1.396       .  A
C731        C736   1.516       .  S
C732        C733   1.409       .  A
C732        H737   1.080       .  S
C733        C734   1.423       .  A
C734        C735   1.398       .  A
C734        C738   1.517       .  S
C735        H739   1.084       .  S
C736        F749   1.384       .  S
C736        F750   1.382       .  S
C736        F751   1.383       .  S
C738        F746   1.378       .  S
C738        F747   1.368       .  S
C738        F748   1.385       .  S
C752        C753   1.397       .  A
C752        C757   1.399       .  A
C752        H762   1.085       .  S
C753        C758   1.460       .  S
C753        C754   1.401       .  A
C754        C755   1.393       .  A
C754        C759   1.522       .  S
C755        C756   1.415       .  A
C755        H760   1.073       .  S
C756        C757   1.423       .  A
C757        C761   1.514       .  S
C758        C763   1.411       .  A
C758        C767   1.398       .  A
C759        F775   1.381       .  S
C759        F776   1.382       .  S
C759        F777   1.385       .  S
C761        F772   1.385       .  S
C761        F773   1.382       .  S
C761        F774   1.372       .  S
C763        C764   1.396       .  A
C763        C768   1.523       .  S
C764        C765   1.404       .  A
C764        H769   1.083       .  S
C765        C766   1.420       .  A
C766        C767   1.397       .  A
C766        C770   1.521       .  S
C767        H771   1.084       .  S
C768        F781   1.385       .  S
C768        F782   1.381       .  S
C768        F783   1.380       .  S
C770        F778   1.385       .  S
C770        F779   1.384       .  S
C770        F780   1.383       .  S
C784        C785   1.389       .  A
C784        C789   1.394       .  A
C784        H794   1.086       .  S
C785        C790   1.462       .  S
C785        C786   1.408       .  A
C786        C787   1.398       .  A
C786        C791   1.519       .  S
C787        C788   1.408       .  A
C787        H792   1.080       .  S
C788        C789   1.430       .  A
C789        C793   1.514       .  S
C790        C795   1.411       .  A
C790        C799   1.397       .  A
C791        F807   1.382       .  S
C791        F808   1.382       .  S
C791        F809   1.384       .  S
C793        F804   1.382       .  S
C793        F805   1.383       .  S
C793        F806   1.363       .  S
C795        C796   1.396       .  A
C795        C800   1.517       .  S
C796        C797   1.399       .  A
C796        H801   1.083       .  S
C797        C798   1.419       .  A
C798        C799   1.399       .  A
C798        C802   1.520       .  S
C799        H803   1.083       .  S
C800        F813   1.384       .  S
C800        F814   1.381       .  S
C800        F815   1.383       .  S
C802        F810   1.385       .  S
C802        F811   1.383       .  S
C802        F812   1.379       .  S
C816        C817   1.393       .  A
C816        C821   1.400       .  A
C816        H826   1.084       .  S
C817        C822   1.470       .  S
C817        C818   1.408       .  A
C818        C819   1.403       .  A
C818        C823   1.517       .  S
C819        C820   1.406       .  A
C819        H824   1.076       .  S
C820        C821   1.422       .  A
C821        C825   1.508       .  S
C822        C827   1.416       .  A
C822        C831   1.402       .  A
C823        F839   1.382       .  S
C823        F840   1.383       .  S
C823        F841   1.384       .  S
C825        F836   1.372       .  S
C825        F837   1.385       .  S
C825        F838   1.376       .  S
C827        C828   1.403       .  A
C827        C832   1.517       .  S
C828        C829   1.400       .  A
C828        H833   1.085       .  S
C829        C830   1.411       .  A
C830        C831   1.399       .  A
C830        C834   1.518       .  S
C831        H835   1.084       .  S
C832        F845   1.384       .  S
C832        F846   1.383       .  S
C832        F847   1.381       .  S
C834        F842   1.385       .  S
C834        F843   1.383       .  S
C834        F844   1.383       .  S
C848        C849   1.386       .  A
C848        C853   1.393       .  A
C848        H858   1.084       .  S
C849        C854   1.460       .  S
C849        C850   1.408       .  A
C850        C851   1.402       .  A
C850        C855   1.516       .  S
C851        C852   1.403       .  A
C851        H856   1.075       .  S
C852        C853   1.423       .  A
C853        C857   1.499       .  S
C854        C859   1.418       .  A
C854        C863   1.398       .  A
C855        F871   1.382       .  S
C855        F872   1.383       .  S
C855        F873   1.385       .  S
C857        F868   1.370       .  S
C857        F869   1.385       .  S
C857        F870   1.376       .  S
C859        C860   1.399       .  A
C859        C864   1.520       .  S
C860        C861   1.397       .  A
C860        H865   1.085       .  S
C861        C862   1.411       .  A
C862        C863   1.395       .  A
C862        C866   1.519       .  S
C863        H867   1.084       .  S
C864        F877   1.384       .  S
C864        F878   1.383       .  S
C864        F879   1.381       .  S
C866        F874   1.383       .  S
C866        F875   1.382       .  S
C866        F876   1.385       .  S
C880        C881   1.401       .  A
C880        C885   1.402       .  A
C880        H890   1.083       .  S
C881        C886   1.466       .  S
C881        C882   1.416       .  A
C882        C883   1.397       .  A
C882        C887   1.519       .  S
C883        C884   1.397       .  A
C883        H888   1.085       .  S
C884        C885   1.414       .  A
C885        C889   1.519       .  S
C886        C891   1.410       .  A
C886        C895   1.394       .  A
C887        F903   1.383       .  S
C887        F904   1.381       .  S
C887        F905   1.384       .  S
C889        F900   1.382       .  S
C889        F901   1.385       .  S
C889        F902   1.384       .  S
C891        C892   1.408       .  A
C891        C896   1.515       .  S
C892        C893   1.405       .  A
C892        H897   1.079       .  S
C893        C894   1.425       .  A
C894        C895   1.396       .  A
C894        C898   1.524       .  S
C895        H899   1.084       .  S
C896        F909   1.384       .  S
C896        F910   1.382       .  S
C896        F911   1.383       .  S
C898        F906   1.383       .  S
C898        F907   1.364       .  S
C898        F908   1.386       .  S
C912        C913   1.388       .  A
C912        C917   1.402       .  A
C912        H922   1.087       .  S
C913        C918   1.480       .  S
C913        C914   1.404       .  A
C914        C915   1.409       .  A
C914        C919   1.519       .  S
C915        C916   1.414       .  A
C915        H920   1.079       .  S
C916        C917   1.436       .  A
C917        C921   1.508       .  S
C918        C923   1.417       .  A
C918        C927   1.403       .  A
C919        F935   1.383       .  S
C919        F936   1.381       .  S
C919        F937   1.381       .  S
C921        F932   1.386       .  S
C921        F933   1.360       .  S
C921        F934   1.382       .  S
C923        C924   1.400       .  A
C923        C928   1.519       .  S
C924        C925   1.399       .  A
C924        H929   1.083       .  S
C925        C926   1.415       .  A
C926        C927   1.409       .  A
C926        C930   1.517       .  S
C927        H931   1.083       .  S
C928        F941   1.384       .  S
C928        F942   1.382       .  S
C928        F943   1.379       .  S
C930        F938   1.382       .  S
C930        F939   1.384       .  S
C930        F940   1.384       .  S
N944        N945   1.318       .  A
N944        N950   1.312       .  A
N945        C952   1.350       .  A
N946        N948   1.315       .  A
N946        N947   1.319       .  A
N947        C953   1.353       .  A
N948        N949   1.315       .  A
N948       Mn973   2.178       .  S
N949        C953   1.350       .  A
N950        N951   1.314       .  A
N950       Mn962   2.177       .  S
N951        C952   1.350       .  A
C952       C1804   1.456       .  S
C953       C1772   1.474       .  S
N954        N960   1.312       .  A
N954        N955   1.319       .  A
N955        C963   1.352       .  A
N956        N957   1.318       .  A
N956        N958   1.315       .  A
N956       Mn962   2.186       .  S
N957        C964   1.351       .  A
N958        N959   1.316       .  A
N958       Mn984   2.190       .  S
N959        C964   1.351       .  A
N960        N961   1.313       .  A
N961        C963   1.347       .  A
Mn962      Cl986   2.532       .  S
C963       C1827   1.460       .  S
C964       C1868   1.462       .  S
N965        N966   1.318       .  A
N965        N971   1.313       .  A
N965       Mn973   2.199       .  S
N966        C974   1.354       .  A
N967        N969   1.313       .  A
N967        N968   1.321       .  A
N968        C975   1.352       .  A
N969        N970   1.313       .  A
N970        C975   1.347       .  A
N971        N972   1.317       .  A
N971       Mn985   2.172       .  S
N972        C974   1.349       .  A
C974       C1708   1.475       .  S
C975       C1740   1.462       .  S
N976        N977   1.321       .  A
N976        N982   1.312       .  A
N976       Mn984   2.209       .  S
N977        C987   1.358       .  A
N978        N979   1.314       .  A
N978        N980   1.314       .  A
N978       Mn985   2.174       .  S
N979        C988   1.351       .  A
N980        N981   1.318       .  A
N981        C988   1.350       .  A
N982        N983   1.314       .  A
N983        C987   1.346       .  A
Mn984      Cl986   2.535       .  S
C987       C1667   1.478       .  S
C988       C1635   1.468       .  S
N989        N990   1.324       .  A
N989        N995   1.320       .  A
N989      Mn1018   2.234       .  S
N990        C997   1.358       .  A
N991        N993   1.319       .  A
N991        N992   1.322       .  A
N991      Mn1007   2.225   1_545  S
N992        C998   1.354       .  A
N993        N994   1.326       .  A
N993      Mn1018   2.228   1_545  S
N994        C998   1.359       .  A
N995        N996   1.324       .  A
N995      Mn1007   2.232       .  S
N996        C997   1.357       .  A
C997       C1603   1.513       .  S
C998       C1452   1.512       .  S
N999       N1005   1.318       .  A
N999       N1000   1.323       .  A
N999      Mn1029   2.214   1_545  S
N1000      C1008   1.356       .  A
N1001      N1002   1.329       .  A
N1001      N1003   1.320       .  A
N1001     Mn1007   2.247       .  S
N1002      C1009   1.360       .  A
N1003      N1004   1.323       .  A
N1003     Mn1029   2.213       .  S
N1004      C1009   1.350       .  A
N1005      N1006   1.320       .  A
N1005     Mn1007   2.214   1_545  S
N1006      C1008   1.353       .  A
Mn1007    Cl1031   2.563       .  S
C1008      C1420   1.495       .  S
C1009      C1516   1.499       .  S
N1010      N1011   1.329       .  A
N1010      N1016   1.320       .  A
N1011      C1019   1.361       .  A
N1012      N1014   1.319       .  A
N1012      N1013   1.325       .  A
N1012     Mn1030   2.223       .  S
N1013      C1020   1.355       .  A
N1014      N1015   1.326       .  A
N1015      C1020   1.357       .  A
N1016      N1017   1.323       .  A
N1016     Mn1030   2.233   1_545  S
N1017      C1019   1.355       .  A
Mn1018    Cl1031   2.569       .  S
C1019      C1484   1.510       .  S
C1020      C1571   1.496       .  S
N1021      N1022   1.319       .  A
N1021      N1027   1.318       .  A
N1022      C1032   1.353       .  A
N1023      N1024   1.323       .  A
N1023      N1025   1.317       .  A
N1023     Mn1030   2.216   1_545  S
N1024      C1033   1.354       .  A
N1025      N1026   1.324       .  A
N1026      C1033   1.355       .  A
N1027      N1028   1.325       .  A
N1027     Mn1030   2.233       .  S
N1028      C1032   1.358       .  A
Mn1029    Cl1031   2.559       .  S
C1032      C1539   1.503       .  S
C1033      C1388   1.495       .  S
N1034      N1035   1.320       .  A
N1034      N1040   1.319       .  A
N1034     Mn1063   2.210       .  S
N1035      C1042   1.353       .  A
N1036      N1038   1.321       .  A
N1036      N1037   1.323       .  A
N1036     Mn1052   2.210   1_455  S
N1037      C1043   1.351       .  A
N1038      N1039   1.323       .  A
N1038     Mn1063   2.218   1_455  S
N1039      C1043   1.351       .  A
N1040      N1041   1.323       .  A
N1040     Mn1052   2.219       .  S
N1041      C1042   1.354       .  A
C1042      C1356   1.495       .  S
C1043      C1123   1.480       .  S
N1044      N1050   1.318       .  A
N1044      N1045   1.322       .  A
N1044     Mn1074   2.210   1_455  S
N1045      C1053   1.352       .  A
N1046      N1047   1.324       .  A
N1046      N1048   1.316       .  A
N1046     Mn1052   2.218       .  S
N1047      C1054   1.355       .  A
N1048      N1049   1.322       .  A
N1048     Mn1074   2.203       .  S
N1049      C1054   1.351       .  A
N1050      N1051   1.325       .  A
N1050     Mn1052   2.231   1_455  S
N1051      C1053   1.357       .  A
Mn1052    Cl1076   2.570       .  S
C1053      C1228   1.495       .  S
C1054      C1251   1.482       .  S
N1055      N1056   1.321       .  A
N1055      N1061   1.316       .  A
N1056      C1064   1.354       .  A
N1057      N1059   1.319       .  A
N1057      N1058   1.327       .  A
N1057     Mn1075   2.239       .  S
N1058      C1065   1.357       .  A
N1059      N1060   1.324       .  A
N1060      C1065   1.353       .  A
N1061      N1062   1.323       .  A
N1061     Mn1075   2.225   1_455  S
N1062      C1064   1.357       .  A
Mn1063    Cl1076   2.542       .  S
C1064      C1164   1.506       .  S
C1065      C1324   1.495       .  S
N1066      N1067   1.320       .  A
N1066      N1072   1.320       .  A
N1067      C1077   1.353       .  A
N1068      N1069   1.326       .  A
N1068      N1070   1.319       .  A
N1068     Mn1075   2.235   1_455  S
N1069      C1078   1.357       .  A
N1070      N1071   1.324       .  A
N1071      C1078   1.353       .  A
N1072      N1073   1.324       .  A
N1072     Mn1075   2.224       .  S
N1073      C1077   1.357       .  A
Mn1074    Cl1076   2.535       .  S
C1077      C1283   1.498       .  S
C1078      C1196   1.494       .  S
C1079      H1080   1.096       .  S
C1079      C1085   1.547       .  S
C1079      C1084   1.581       .  S
C1079      C1083   1.564       .  S
C1081      H1082   1.111       .  S
C1081      C1087   1.541       .  S
C1081      C1086   1.535       .  S
C1081      C1088   1.559       .  S
C1083      C1086   1.379       .  D
C1083      C1859   1.512       .  S
C1084      C1087   1.402       .  D
C1084      C1219   1.544       .  S
C1085      C1088   1.378       .  D
C1085      C1443   1.524       .  S
C1086      C1836   1.506       .  S
C1087      C1187   1.528       .  S
C1088      C1475   1.508       .  S
C1089      H1090   1.098       .  S
C1089      C1095   1.539       .  S
C1089      C1094   1.561       .  S
C1089      C1093   1.538       .  S
C1091      H1092   1.092       .  S
C1091      C1097   1.519       .  S
C1091      C1096   1.548       .  S
C1091      C1098   1.566       .  S
C1093      C1096   1.376       .  D
C1093      C1795   1.510       .  S
C1094      C1097   1.370       .  D
C1094      C1411   1.487       .  S
C1095      C1098   1.400       .  D
C1095      C1260   1.512       .  S
C1096      C1763   1.496       .  S
C1097      C1379   1.514       .  S
C1098      C1292   1.533       .  S
C1099      H1100   1.102       .  S
C1099      C1105   1.553       .  S
C1099      C1104   1.550       .  S
C1099      C1103   1.533       .  S
C1101      H1102   1.106       .  S
C1101      C1107   1.551       .  S
C1101      C1106   1.543       .  S
C1101      C1108   1.544       .  S
C1103      C1106   1.377       .  D
C1103      C1676   1.508       .  S
C1104      C1107   1.391       .  D
C1104      C1612   1.514       .  S
C1105      C1108   1.383       .  D
C1105      C1132   1.508       .  S
C1106      C1644   1.483       .  S
C1107      C1580   1.520       .  S
C1108      C1155   1.509       .  S
C1109      H1110   1.111       .  S
C1109      C1115   1.541       .  S
C1109      C1114   1.553       .  S
C1109      C1113   1.535       .  S
C1111      H1112   1.100       .  S
C1111      C1117   1.550       .  S
C1111      C1116   1.549       .  S
C1111      C1118   1.557       .  S
C1113      C1116   1.385       .  D
C1113      C1731   1.486       .  S
C1114      C1117   1.389       .  D
C1114      C1347   1.515       .  S
C1115      C1118   1.384       .  D
C1115      C1507   1.525       .  S
C1116      C1699   1.508       .  S
C1117      C1315   1.518       .  S
C1118      C1548   1.512       .  S
C1119      C1120   1.403       .  A
C1119      C1124   1.411       .  A
C1119      H1129   1.083       .  S
C1120      C1125   1.493       .  S
C1120      C1121   1.421       .  A
C1121      C1122   1.409       .  A
C1121      C1126   1.518       .  S
C1122      C1123   1.398       .  A
C1122      H1127   1.083       .  S
C1123      C1124   1.419       .  A
C1124      C1128   1.519       .  S
C1125      C1130   1.413       .  A
C1125      C1134   1.396       .  A
C1126      F1142   1.381       .  S
C1126      F1143   1.381       .  S
C1126      F1144   1.385       .  S
C1128      F1139   1.385       .  S
C1128      F1140   1.383       .  S
C1128      F1141   1.382       .  S
C1130      C1131   1.411       .  A
C1130      C1135   1.517       .  S
C1131      C1132   1.409       .  A
C1131      H1136   1.083       .  S
C1132      C1133   1.435       .  A
C1133      C1134   1.407       .  A
C1133      C1137   1.519       .  S
C1134      H1138   1.085       .  S
C1135      F1148   1.384       .  S
C1135      F1149   1.382       .  S
C1135      F1150   1.382       .  S
C1137      F1145   1.378       .  S
C1137      F1146   1.372       .  S
C1137      F1147   1.386       .  S
C1151      C1152   1.405       .  A
C1151      C1156   1.413       .  A
C1151      H1161   1.084       .  S
C1152      C1157   1.494       .  S
C1152      C1153   1.415       .  A
C1153      C1154   1.408       .  A
C1153      C1158   1.522       .  S
C1154      C1155   1.412       .  A
C1154      H1159   1.081       .  S
C1155      C1156   1.421       .  A
C1156      C1160   1.516       .  S
C1157      C1162   1.413       .  A
C1157      C1166   1.401       .  A
C1158      F1174   1.383       .  S
C1158      F1175   1.382       .  S
C1158      F1176   1.385       .  S
C1160      F1171   1.384       .  S
C1160      F1172   1.383       .  S
C1160      F1173   1.380       .  S
C1162      C1163   1.411       .  A
C1162      C1167   1.520       .  S
C1163      C1164   1.413       .  A
C1163      H1168   1.082       .  S
C1164      C1165   1.427       .  A
C1165      C1166   1.412       .  A
C1165      C1169   1.520       .  S
C1166      H1170   1.081       .  S
C1167      F1180   1.385       .  S
C1167      F1181   1.382       .  S
C1167      F1182   1.382       .  S
C1169      F1177   1.383       .  S
C1169      F1178   1.383       .  S
C1169      F1179   1.385       .  S
C1183      C1184   1.391       .  A
C1183      C1188   1.407       .  A
C1183      H1193   1.086       .  S
C1184      C1189   1.501       .  S
C1184      C1185   1.415       .  A
C1185      C1186   1.419       .  A
C1185      C1190   1.514       .  S
C1186      C1187   1.412       .  A
C1186      H1191   1.080       .  S
C1187      C1188   1.439       .  A
C1188      C1192   1.509       .  S
C1189      C1194   1.424       .  A
C1189      C1198   1.406       .  A
C1190      F1206   1.382       .  S
C1190      F1207   1.383       .  S
C1190      F1208   1.384       .  S
C1192      F1203   1.382       .  S
C1192      F1204   1.381       .  S
C1192      F1205   1.362       .  S
C1194      C1195   1.414       .  A
C1194      C1199   1.520       .  S
C1195      C1196   1.402       .  A
C1195      H1200   1.084       .  S
C1196      C1197   1.418       .  A
C1197      C1198   1.414       .  A
C1197      C1201   1.517       .  S
C1198      H1202   1.083       .  S
C1199      F1212   1.383       .  S
C1199      F1213   1.383       .  S
C1199      F1214   1.382       .  S
C1201      F1209   1.384       .  S
C1201      F1210   1.383       .  S
C1201      F1211   1.383       .  S
C1215      C1216   1.402       .  A
C1215      C1220   1.412       .  A
C1215      H1225   1.084       .  S
C1216      C1221   1.499       .  S
C1216      C1217   1.416       .  A
C1217      C1218   1.413       .  A
C1217      C1222   1.519       .  S
C1218      C1219   1.411       .  A
C1218      H1223   1.072       .  S
C1219      C1220   1.429       .  A
C1220      C1224   1.517       .  S
C1221      C1226   1.419       .  A
C1221      C1230   1.402       .  A
C1222      F1238   1.382       .  S
C1222      F1239   1.383       .  S
C1222      F1240   1.385       .  S
C1224      F1235   1.382       .  S
C1224      F1236   1.385       .  S
C1224      F1237   1.381       .  S
C1226      C1227   1.412       .  A
C1226      C1231   1.517       .  S
C1227      C1228   1.403       .  A
C1227      H1232   1.083       .  S
C1228      C1229   1.424       .  A
C1229      C1230   1.413       .  A
C1229      C1233   1.519       .  S
C1230      H1234   1.083       .  S
C1231      F1244   1.385       .  S
C1231      F1245   1.382       .  S
C1231      F1246   1.378       .  S
C1233      F1241   1.385       .  S
C1233      F1242   1.382       .  S
C1233      F1243   1.384       .  S
C1247      C1248   1.407       .  A
C1247      C1252   1.412       .  A
C1247      H1257   1.083       .  S
C1248      C1253   1.497       .  S
C1248      C1249   1.419       .  A
C1249      C1250   1.410       .  A
C1249      C1254   1.517       .  S
C1250      C1251   1.402       .  A
C1250      H1255   1.083       .  S
C1251      C1252   1.413       .  A
C1252      C1256   1.516       .  S
C1253      C1258   1.416       .  A
C1253      C1262   1.404       .  A
C1254      F1270   1.382       .  S
C1254      F1271   1.380       .  S
C1254      F1272   1.384       .  S
C1256      F1267   1.383       .  S
C1256      F1268   1.383       .  S
C1256      F1269   1.384       .  S
C1258      C1259   1.410       .  A
C1258      C1263   1.519       .  S
C1259      C1260   1.407       .  A
C1259      H1264   1.078       .  S
C1260      C1261   1.418       .  A
C1261      C1262   1.413       .  A
C1261      C1265   1.513       .  S
C1262      H1266   1.083       .  S
C1263      F1276   1.383       .  S
C1263      F1277   1.381       .  S
C1263      F1278   1.382       .  S
C1265      F1273   1.378       .  S
C1265      F1274   1.383       .  S
C1265      F1275   1.384       .  S
C1279      C1280   1.399       .  A
C1279      C1284   1.408       .  A
C1279      H1289   1.083       .  S
C1280      C1285   1.488       .  S
C1280      C1281   1.418       .  A
C1281      C1282   1.410       .  A
C1281      C1286   1.520       .  S
C1282      C1283   1.409       .  A
C1282      H1287   1.084       .  S
C1283      C1284   1.426       .  A
C1284      C1288   1.520       .  S
C1285      C1290   1.414       .  A
C1285      C1294   1.399       .  A
C1286      F1302   1.384       .  S
C1286      F1303   1.382       .  S
C1286      F1304   1.383       .  S
C1288      F1299   1.385       .  S
C1288      F1300   1.382       .  S
C1288      F1301   1.383       .  S
C1290      C1291   1.409       .  A
C1290      C1295   1.518       .  S
C1291      C1292   1.411       .  A
C1291      H1296   1.074       .  S
C1292      C1293   1.427       .  A
C1293      C1294   1.408       .  A
C1293      C1297   1.518       .  S
C1294      H1298   1.085       .  S
C1295      F1308   1.383       .  S
C1295      F1309   1.382       .  S
C1295      F1310   1.382       .  S
C1297      F1305   1.385       .  S
C1297      F1306   1.382       .  S
C1297      F1307   1.384       .  S
C1311      C1312   1.407       .  A
C1311      C1316   1.417       .  A
C1311      H1321   1.084       .  S
C1312      C1317   1.504       .  S
C1312      C1313   1.415       .  A
C1313      C1314   1.411       .  A
C1313      C1318   1.521       .  S
C1314      C1315   1.410       .  A
C1314      H1319   1.073       .  S
C1315      C1316   1.423       .  A
C1316      C1320   1.517       .  S
C1317      C1322   1.419       .  A
C1317      C1326   1.407       .  A
C1318      F1334   1.382       .  S
C1318      F1335   1.381       .  S
C1318      F1336   1.384       .  S
C1320      F1331   1.382       .  S
C1320      F1332   1.384       .  S
C1320      F1333   1.383       .  S
C1322      C1323   1.415       .  A
C1322      C1327   1.519       .  S
C1323      C1324   1.406       .  A
C1323      H1328   1.083       .  S
C1324      C1325   1.416       .  A
C1325      C1326   1.416       .  A
C1325      C1329   1.515       .  S
C1326      H1330   1.083       .  S
C1327      F1340   1.385       .  S
C1327      F1341   1.382       .  S
C1327      F1342   1.382       .  S
C1329      F1337   1.383       .  S
C1329      F1338   1.383       .  S
C1329      F1339   1.385       .  S
C1343      C1344   1.406       .  A
C1343      C1348   1.415       .  A
C1343      H1353   1.083       .  S
C1344      C1349   1.492       .  S
C1344      C1345   1.413       .  A
C1345      C1346   1.400       .  A
C1345      C1350   1.523       .  S
C1346      C1347   1.410       .  A
C1346      H1351   1.076       .  S
C1347      C1348   1.425       .  A
C1348      C1352   1.516       .  S
C1349      C1354   1.413       .  A
C1349      C1358   1.404       .  A
C1350      F1366   1.381       .  S
C1350      F1367   1.383       .  S
C1350      F1368   1.384       .  S
C1352      F1363   1.383       .  S
C1352      F1364   1.382       .  S
C1352      F1365   1.383       .  S
C1354      C1355   1.408       .  A
C1354      C1359   1.519       .  S
C1355      C1356   1.409       .  A
C1355      H1360   1.082       .  S
C1356      C1357   1.422       .  A
C1357      C1358   1.411       .  A
C1357      C1361   1.519       .  S
C1358      H1362   1.082       .  S
C1359      F1372   1.385       .  S
C1359      F1373   1.382       .  S
C1359      F1374   1.383       .  S
C1361      F1369   1.382       .  S
C1361      F1370   1.384       .  S
C1361      F1371   1.385       .  S
C1375      C1376   1.396       .  A
C1375      C1380   1.408       .  A
C1375      H1385   1.083       .  S
C1376      C1381   1.497       .  S
C1376      C1377   1.417       .  A
C1377      C1378   1.416       .  A
C1377      C1382   1.518       .  S
C1378      C1379   1.408       .  A
C1378      H1383   1.080       .  S
C1379      C1380   1.428       .  A
C1380      C1384   1.513       .  S
C1381      C1386   1.420       .  A
C1381      C1390   1.402       .  A
C1382      F1398   1.382       .  S
C1382      F1399   1.382       .  S
C1382      F1400   1.385       .  S
C1384      F1395   1.378       .  S
C1384      F1396   1.385       .  S
C1384      F1397   1.371       .  S
C1386      C1387   1.413       .  A
C1386      C1391   1.520       .  S
C1387      C1388   1.406       .  A
C1387      H1392   1.083       .  S
C1388      C1389   1.423       .  A
C1389      C1390   1.411       .  A
C1389      C1393   1.519       .  S
C1390      H1394   1.083       .  S
C1391      F1404   1.385       .  S
C1391      F1405   1.382       .  S
C1391      F1406   1.382       .  S
C1393      F1401   1.382       .  S
C1393      F1402   1.384       .  S
C1393      F1403   1.385       .  S
C1407      C1408   1.405       .  A
C1407      C1412   1.410       .  A
C1407      H1417   1.084       .  S
C1408      C1413   1.484       .  S
C1408      C1409   1.413       .  A
C1409      C1410   1.400       .  A
C1409      C1414   1.522       .  S
C1410      C1411   1.400       .  A
C1410      H1415   1.071       .  S
C1411      C1412   1.417       .  A
C1412      C1416   1.515       .  S
C1413      C1418   1.413       .  A
C1413      C1422   1.397       .  A
C1414      F1430   1.382       .  S
C1414      F1431   1.382       .  S
C1414      F1432   1.385       .  S
C1416      F1427   1.383       .  S
C1416      F1428   1.383       .  S
C1416      F1429   1.380       .  S
C1418      C1419   1.410       .  A
C1418      C1423   1.519       .  S
C1419      C1420   1.409       .  A
C1419      H1424   1.083       .  S
C1420      C1421   1.427       .  A
C1421      C1422   1.406       .  A
C1421      C1425   1.519       .  S
C1422      H1426   1.083       .  S
C1423      F1436   1.384       .  S
C1423      F1437   1.383       .  S
C1423      F1438   1.383       .  S
C1425      F1433   1.385       .  S
C1425      F1434   1.379       .  S
C1425      F1435   1.382       .  S
C1439      C1440   1.392       .  A
C1439      C1444   1.403       .  A
C1439      H1449   1.084       .  S
C1440      C1445   1.498       .  S
C1440      C1441   1.418       .  A
C1441      C1442   1.422       .  A
C1441      C1446   1.516       .  S
C1442      C1443   1.413       .  A
C1442      H1447   1.080       .  S
C1443      C1444   1.427       .  A
C1444      C1448   1.506       .  S
C1445      C1450   1.419       .  A
C1445      C1454   1.404       .  A
C1446      F1462   1.383       .  S
C1446      F1463   1.382       .  S
C1446      F1464   1.385       .  S
C1448      F1459   1.376       .  S
C1448      F1460   1.386       .  S
C1448      F1461   1.375       .  S
C1450      C1451   1.413       .  A
C1450      C1455   1.518       .  S
C1451      C1452   1.411       .  A
C1451      H1456   1.084       .  S
C1452      C1453   1.429       .  A
C1453      C1454   1.414       .  A
C1453      C1457   1.521       .  S
C1454      H1458   1.083       .  S
C1455      F1468   1.384       .  S
C1455      F1469   1.383       .  S
C1455      F1470   1.381       .  S
C1457      F1465   1.385       .  S
C1457      F1466   1.384       .  S
C1457      F1467   1.382       .  S
C1471      C1472   1.408       .  A
C1471      C1476   1.417       .  A
C1471      H1481   1.084       .  S
C1472      C1477   1.510       .  S
C1472      C1473   1.420       .  A
C1473      C1474   1.413       .  A
C1473      C1478   1.519       .  S
C1474      C1475   1.406       .  A
C1474      H1479   1.080       .  S
C1475      C1476   1.422       .  A
C1476      C1480   1.516       .  S
C1477      C1482   1.421       .  A
C1477      C1486   1.402       .  A
C1478      F1494   1.382       .  S
C1478      F1495   1.382       .  S
C1478      F1496   1.385       .  S
C1480      F1491   1.383       .  S
C1480      F1492   1.384       .  S
C1480      F1493   1.381       .  S
C1482      C1483   1.420       .  A
C1482      C1487   1.517       .  S
C1483      C1484   1.409       .  A
C1483      H1488   1.083       .  S
C1484      C1485   1.427       .  A
C1485      C1486   1.414       .  A
C1485      C1489   1.519       .  S
C1486      H1490   1.083       .  S
C1487      F1500   1.385       .  S
C1487      F1501   1.382       .  S
C1487      F1502   1.380       .  S
C1489      F1497   1.384       .  S
C1489      F1498   1.383       .  S
C1489      F1499   1.383       .  S
C1503      C1504   1.397       .  A
C1503      C1508   1.410       .  A
C1503      H1513   1.085       .  S
C1504      C1509   1.504       .  S
C1504      C1505   1.421       .  A
C1505      C1506   1.418       .  A
C1505      C1510   1.516       .  S
C1506      C1507   1.412       .  A
C1506      H1511   1.085       .  S
C1507      C1508   1.436       .  A
C1508      C1512   1.513       .  S
C1509      C1514   1.426       .  A
C1509      C1518   1.404       .  A
C1510      F1526   1.381       .  S
C1510      F1527   1.383       .  S
C1510      F1528   1.384       .  S
C1512      F1523   1.384       .  S
C1512      F1524   1.382       .  S
C1512      F1525   1.362       .  S
C1514      C1515   1.414       .  A
C1514      C1519   1.516       .  S
C1515      C1516   1.402       .  A
C1515      H1520   1.085       .  S
C1516      C1517   1.420       .  A
C1517      C1518   1.414       .  A
C1517      C1521   1.512       .  S
C1518      H1522   1.083       .  S
C1519      F1532   1.384       .  S
C1519      F1533   1.383       .  S
C1519      F1534   1.381       .  S
C1521      F1529   1.382       .  S
C1521      F1530   1.384       .  S
C1521      F1531   1.385       .  S
C1535      C1536   1.403       .  A
C1535      C1540   1.413       .  A
C1535      H1545   1.083       .  S
C1536      C1541   1.493       .  S
C1536      C1537   1.414       .  A
C1537      C1538   1.410       .  A
C1537      C1542   1.521       .  S
C1538      C1539   1.412       .  A
C1538      H1543   1.082       .  S
C1539      C1540   1.424       .  A
C1540      C1544   1.518       .  S
C1541      C1546   1.413       .  A
C1541      C1550   1.406       .  A
C1542      F1558   1.382       .  S
C1542      F1559   1.382       .  S
C1542      F1560   1.385       .  S
C1544      F1555   1.384       .  S
C1544      F1556   1.385       .  S
C1544      F1557   1.382       .  S
C1546      C1547   1.406       .  A
C1546      C1551   1.523       .  S
C1547      C1548   1.413       .  A
C1547      H1552   1.079       .  S
C1548      C1549   1.422       .  A
C1549      C1550   1.413       .  A
C1549      C1553   1.516       .  S
C1550      H1554   1.084       .  S
C1551      F1564   1.385       .  S
C1551      F1565   1.382       .  S
C1551      F1566   1.382       .  S
C1553      F1561   1.383       .  S
C1553      F1562   1.381       .  S
C1553      F1563   1.384       .  S
C1567      C1568   1.406       .  A
C1567      C1572   1.415       .  A
C1567      H1577   1.083       .  S
C1568      C1573   1.502       .  S
C1568      C1569   1.418       .  A
C1569      C1570   1.415       .  A
C1569      C1574   1.517       .  S
C1570      C1571   1.406       .  A
C1570      H1575   1.083       .  S
C1571      C1572   1.418       .  A
C1572      C1576   1.515       .  S
C1573      C1578   1.418       .  A
C1573      C1582   1.403       .  A
C1574      F1590   1.382       .  S
C1574      F1591   1.383       .  S
C1574      F1592   1.385       .  S
C1576      F1587   1.382       .  S
C1576      F1588   1.385       .  S
C1576      F1589   1.383       .  S
C1578      C1579   1.409       .  A
C1578      C1583   1.517       .  S
C1579      C1580   1.410       .  A
C1579      H1584   1.080       .  S
C1580      C1581   1.428       .  A
C1581      C1582   1.414       .  A
C1581      C1585   1.516       .  S
C1582      H1586   1.084       .  S
C1583      F1596   1.384       .  S
C1583      F1597   1.383       .  S
C1583      F1598   1.381       .  S
C1585      F1593   1.383       .  S
C1585      F1594   1.377       .  S
C1585      F1595   1.384       .  S
C1599      C1600   1.401       .  A
C1599      C1604   1.414       .  A
C1599      H1609   1.083       .  S
C1600      C1605   1.498       .  S
C1600      C1601   1.414       .  A
C1601      C1602   1.414       .  A
C1601      C1606   1.520       .  S
C1602      C1603   1.414       .  A
C1602      H1607   1.082       .  S
C1603      C1604   1.430       .  A
C1604      C1608   1.520       .  S
C1605      C1610   1.413       .  A
C1605      C1614   1.409       .  A
C1606      F1622   1.382       .  S
C1606      F1623   1.382       .  S
C1606      F1624   1.384       .  S
C1608      F1619   1.383       .  S
C1608      F1620   1.385       .  S
C1608      F1621   1.383       .  S
C1610      C1611   1.403       .  A
C1610      C1615   1.524       .  S
C1611      C1612   1.410       .  A
C1611      H1616   1.071       .  S
C1612      C1613   1.421       .  A
C1613      C1614   1.417       .  A
C1613      C1617   1.515       .  S
C1614      H1618   1.084       .  S
C1615      F1628   1.385       .  S
C1615      F1629   1.381       .  S
C1615      F1630   1.381       .  S
C1617      F1625   1.383       .  S
C1617      F1626   1.382       .  S
C1617      F1627   1.384       .  S
C1631      C1632   1.399       .  A
C1631      C1636   1.401       .  A
C1631      H1641   1.083       .  S
C1632      C1637   1.462       .  S
C1632      C1633   1.411       .  A
C1633      C1634   1.395       .  A
C1633      C1638   1.522       .  S
C1634      C1635   1.404       .  A
C1634      H1639   1.083       .  S
C1635      C1636   1.419       .  A
C1636      C1640   1.519       .  S
C1637      C1642   1.408       .  A
C1637      C1646   1.396       .  A
C1638      F1654   1.382       .  S
C1638      F1655   1.382       .  S
C1638      F1656   1.384       .  S
C1640      F1651   1.385       .  S
C1640      F1652   1.383       .  S
C1640      F1653   1.383       .  S
C1642      C1643   1.398       .  A
C1642      C1647   1.519       .  S
C1643      C1644   1.406       .  A
C1643      H1648   1.079       .  S
C1644      C1645   1.418       .  A
C1645      C1646   1.395       .  A
C1645      C1649   1.514       .  S
C1646      H1650   1.084       .  S
C1647      F1660   1.385       .  S
C1647      F1661   1.382       .  S
C1647      F1662   1.382       .  S
C1649      F1657   1.379       .  S
C1649      F1658   1.376       .  S
C1649      F1659   1.385       .  S
C1663      C1664   1.397       .  A
C1663      C1668   1.404       .  A
C1663      H1673   1.083       .  S
C1664      C1669   1.473       .  S
C1664      C1665   1.414       .  A
C1665      C1666   1.402       .  A
C1665      C1670   1.520       .  S
C1666      C1667   1.403       .  A
C1666      H1671   1.083       .  S
C1667      C1668   1.425       .  A
C1668      C1672   1.522       .  S
C1669      C1674   1.411       .  A
C1669      C1678   1.395       .  A
C1670      F1686   1.382       .  S
C1670      F1687   1.383       .  S
C1670      F1688   1.385       .  S
C1672      F1683   1.382       .  S
C1672      F1684   1.385       .  S
C1672      F1685   1.383       .  S
C1674      C1675   1.402       .  A
C1674      C1679   1.518       .  S
C1675      C1676   1.411       .  A
C1675      H1680   1.079       .  S
C1676      C1677   1.426       .  A
C1677      C1678   1.401       .  A
C1677      C1681   1.514       .  S
C1678      H1682   1.084       .  S
C1679      F1692   1.383       .  S
C1679      F1693   1.384       .  S
C1679      F1694   1.381       .  S
C1681      F1689   1.375       .  S
C1681      F1690   1.368       .  S
C1681      F1691   1.385       .  S
C1695      C1696   1.395       .  A
C1695      C1700   1.404       .  A
C1695      H1705   1.084       .  S
C1696      C1701   1.465       .  S
C1696      C1697   1.405       .  A
C1697      C1698   1.393       .  A
C1697      C1702   1.520       .  S
C1698      C1699   1.411       .  A
C1698      H1703   1.073       .  S
C1699      C1700   1.431       .  A
C1700      C1704   1.518       .  S
C1701      C1706   1.409       .  A
C1701      C1710   1.397       .  A
C1702      F1718   1.384       .  S
C1702      F1719   1.383       .  S
C1702      F1720   1.381       .  S
C1704      F1715   1.385       .  S
C1704      F1716   1.374       .  S
C1704      F1717   1.372       .  S
C1706      C1707   1.400       .  A
C1706      C1711   1.518       .  S
C1707      C1708   1.404       .  A
C1707      H1712   1.084       .  S
C1708      C1709   1.425       .  A
C1709      C1710   1.403       .  A
C1709      C1713   1.521       .  S
C1710      H1714   1.083       .  S
C1711      F1724   1.384       .  S
C1711      F1725   1.383       .  S
C1711      F1726   1.383       .  S
C1713      F1721   1.386       .  S
C1713      F1722   1.383       .  S
C1713      F1723   1.383       .  S
C1727      C1728   1.397       .  A
C1727      C1732   1.399       .  A
C1727      H1737   1.085       .  S
C1728      C1733   1.469       .  S
C1728      C1729   1.408       .  A
C1729      C1730   1.398       .  A
C1729      C1734   1.517       .  S
C1730      C1731   1.404       .  A
C1730      H1735   1.077       .  S
C1731      C1732   1.420       .  A
C1732      C1736   1.511       .  S
C1733      C1738   1.414       .  A
C1733      C1742   1.401       .  A
C1734      F1750   1.382       .  S
C1734      F1751   1.382       .  S
C1734      F1752   1.382       .  S
C1736      F1747   1.384       .  S
C1736      F1748   1.383       .  S
C1736      F1749   1.370       .  S
C1738      C1739   1.396       .  A
C1738      C1743   1.521       .  S
C1739      C1740   1.399       .  A
C1739      H1744   1.084       .  S
C1740      C1741   1.415       .  A
C1741      C1742   1.404       .  A
C1741      C1745   1.517       .  S
C1742      H1746   1.083       .  S
C1743      F1756   1.385       .  S
C1743      F1757   1.381       .  S
C1743      F1758   1.382       .  S
C1745      F1753   1.385       .  S
C1745      F1754   1.384       .  S
C1745      F1755   1.381       .  S
C1759      C1760   1.394       .  A
C1759      C1764   1.401       .  A
C1759      H1769   1.085       .  S
C1760      C1765   1.469       .  S
C1760      C1761   1.411       .  A
C1761      C1762   1.398       .  A
C1761      C1766   1.521       .  S
C1762      C1763   1.406       .  A
C1762      H1767   1.082       .  S
C1763      C1764   1.433       .  A
C1764      C1768   1.521       .  S
C1765      C1770   1.408       .  A
C1765      C1774   1.401       .  A
C1766      F1782   1.382       .  S
C1766      F1783   1.381       .  S
C1766      F1784   1.385       .  S
C1768      F1779   1.382       .  S
C1768      F1780   1.385       .  S
C1768      F1781   1.369       .  S
C1770      C1771   1.401       .  A
C1770      C1775   1.519       .  S
C1771      C1772   1.407       .  A
C1771      H1776   1.083       .  S
C1772      C1773   1.419       .  A
C1773      C1774   1.402       .  A
C1773      C1777   1.520       .  S
C1774      H1778   1.084       .  S
C1775      F1788   1.384       .  S
C1775      F1789   1.382       .  S
C1775      F1790   1.381       .  S
C1777      F1785   1.385       .  S
C1777      F1786   1.384       .  S
C1777      F1787   1.383       .  S
C1791      C1792   1.400       .  A
C1791      C1796   1.404       .  A
C1791      H1801   1.083       .  S
C1792      C1797   1.468       .  S
C1792      C1793   1.404       .  A
C1793      C1794   1.397       .  A
C1793      C1798   1.520       .  S
C1794      C1795   1.413       .  A
C1794      H1799   1.077       .  S
C1795      C1796   1.423       .  A
C1796      C1800   1.517       .  S
C1797      C1802   1.414       .  A
C1797      C1806   1.402       .  A
C1798      F1814   1.382       .  S
C1798      F1815   1.381       .  S
C1798      F1816   1.384       .  S
C1800      F1811   1.382       .  S
C1800      F1812   1.385       .  S
C1800      F1813   1.375       .  S
C1802      C1803   1.401       .  A
C1802      C1807   1.519       .  S
C1803      C1804   1.400       .  A
C1803      H1808   1.083       .  S
C1804      C1805   1.412       .  A
C1805      C1806   1.396       .  A
C1805      C1809   1.519       .  S
C1806      H1810   1.084       .  S
C1807      F1820   1.384       .  S
C1807      F1821   1.382       .  S
C1807      F1822   1.380       .  S
C1809      F1817   1.383       .  S
C1809      F1818   1.384       .  S
C1809      F1819   1.384       .  S
C1823      C1824   1.400       .  A
C1823      C1828   1.400       .  A
C1823      H1833   1.084       .  S
C1824      C1829   1.470       .  S
C1824      C1825   1.412       .  A
C1825      C1826   1.396       .  A
C1825      C1830   1.514       .  S
C1826      C1827   1.401       .  A
C1826      H1831   1.084       .  S
C1827      C1828   1.413       .  A
C1828      C1832   1.517       .  S
C1829      C1834   1.408       .  A
C1829      C1838   1.392       .  A
C1830      F1846   1.380       .  S
C1830      F1847   1.380       .  S
C1830      F1848   1.386       .  S
C1832      F1843   1.384       .  S
C1832      F1844   1.385       .  S
C1832      F1845   1.382       .  S
C1834      C1835   1.400       .  A
C1834      C1839   1.521       .  S
C1835      C1836   1.409       .  A
C1835      H1840   1.078       .  S
C1836      C1837   1.433       .  A
C1837      C1838   1.402       .  A
C1837      C1841   1.514       .  S
C1838      H1842   1.085       .  S
C1839      F1852   1.382       .  S
C1839      F1853   1.382       .  S
C1839      F1854   1.382       .  S
C1841      F1849   1.384       .  S
C1841      F1850   1.366       .  S
C1841      F1851   1.383       .  S
C1855      C1856   1.393       .  A
C1855      C1860   1.400       .  A
C1855      H1865   1.086       .  S
C1856      C1861   1.470       .  S
C1856      C1857   1.402       .  A
C1857      C1858   1.402       .  A
C1857      C1862   1.518       .  S
C1858      C1859   1.417       .  A
C1858      H1863   1.080       .  S
C1859      C1860   1.430       .  A
C1860      C1864   1.512       .  S
C1861      C1866   1.414       .  A
C1861      C1870   1.402       .  A
C1862      F1878   1.381       .  S
C1862      F1879   1.381       .  S
C1862      F1880   1.382       .  S
C1864      F1875   1.384       .  S
C1864      F1876   1.363       .  S
C1864      F1877   1.382       .  S
C1866      C1867   1.401       .  A
C1866      C1871   1.521       .  S
C1867      C1868   1.402       .  A
C1867      H1872   1.083       .  S
C1868      C1869   1.411       .  A
C1869      C1870   1.401       .  A
C1869      C1873   1.516       .  S
C1870      H1874   1.084       .  S
C1871      F1884   1.384       .  S
C1871      F1885   1.382       .  S
C1871      F1886   1.381       .  S
C1873      F1881   1.382       .  S
C1873      F1882   1.384       .  S
C1873      F1883   1.385       .  S
