geometry optimzed in LAMMPS
_audit_creation_date              2020-12-01 
_audit_creation_method            'lammps2cif' 
_symmetry_space_group_name_H-M    'P1' 
_symmetry_Int_Tables_number       1 
_symmetry_cell_setting            triclinic 
loop_ 
_symmetry_equiv_pos_as_xyz 
  x,y,z 
_cell_length_a                    49.22249896 
_cell_length_b                    49.368187200305684 
_cell_length_c                    49.103943301214166 
_cell_angle_alpha                 90.2807870460135 
_cell_angle_beta                  89.88778156189845 
_cell_angle_gamma                 90.43167398890998 
loop_ 
_atom_site_label 
_atom_site_type_symbol 
_atom_site_fract_x 
_atom_site_fract_y 
_atom_site_fract_z 
_atom_site_charge 
C1          C  0.57315857  0.89284935  0.68451069     0.03600
C2          C  0.54798507  0.88013194  0.68819012    -0.12500
C3          C  0.52450392  0.89527334  0.69189912     0.01100
C4          C  0.52641195  0.92351211  0.69334948    -0.11000
C5          C  0.55123982  0.93720598  0.68826902     0.03600
C6          C  0.57483188  0.92134619  0.68406033    -0.10500
H7          H  0.54659379  0.85817958  0.68741456     0.09200
H8          H  0.50810483  0.93454517  0.69826024     0.06800
H9          H  0.59428949  0.93075441  0.67985936     0.06600
C10         C  0.57534513  0.01128908  0.69213065     0.03600
C11         C  0.57582202  0.98281113  0.69214747    -0.12500
C12         C  0.55182775  0.96769187  0.68694254     0.01100
C13         C  0.52779633  0.98213437  0.68095341    -0.11000
C14         C  0.52699328  0.01049919  0.68228230     0.03600
C15         C  0.55080044  0.02478571  0.68828403    -0.10500
H16         H  0.59475487  0.97282940  0.69670391     0.09200
H17         H  0.50922903  0.97158911  0.67543912     0.06800
H18         H  0.55026501  0.04665155  0.69051636     0.06600
C19         C  0.93524306  0.69899702  0.52634595     0.03600
C20         C  0.96388669  0.69841810  0.52620300    -0.12500
C21         C  0.97851287  0.70258572  0.50158714     0.01100
C22         C  0.96346699  0.70817260  0.47778684    -0.11000
C23         C  0.93511277  0.70618966  0.47749889     0.03600
C24         C  0.92118681  0.70241165  0.50191519    -0.10500
H25         H  0.97430344  0.69389621  0.54496062     0.09200
H26         H  0.97350927  0.71345038  0.45895027     0.06800
H27         H  0.89917363  0.70115092  0.50182342     0.06600
C28         C  0.05430178  0.70179858  0.52039583     0.03600
C29         C  0.02588352  0.70357285  0.52291514    -0.12500
C30         C  0.00899338  0.70001590  0.49984808     0.01100
C31         C  0.02164954  0.69423898  0.47451419    -0.11000
C32         C  0.04996968  0.69401066  0.47181044     0.03600
C33         C  0.06610862  0.69728927  0.49487104    -0.10500
H34         H  0.01735914  0.70834521  0.54263616     0.09200
H35         H  0.00985564  0.69008718  0.45643945     0.06800
H36         H  0.08805322  0.69706102  0.49286721     0.06600
C37         C  0.54954860  0.68669678  0.35685916     0.03600
C38         C  0.52093821  0.68528541  0.35655438    -0.12500
C39         C  0.50586251  0.68885931  0.38097417     0.01100
C40         C  0.52049511  0.69435073  0.40522642    -0.11000
C41         C  0.54894097  0.69468283  0.40565678     0.03600
C42         C  0.56321654  0.69070808  0.38145712    -0.10500
H43         H  0.51085105  0.68097695  0.33745938     0.09200
H44         H  0.51012119  0.69859384  0.42417469     0.06800
H45         H  0.58525931  0.69054234  0.38175237     0.06600
C46         C  0.43067519  0.69293608  0.36026171     0.03600
C47         C  0.41802373  0.68926410  0.38552848    -0.12500
C48         C  0.43329771  0.68456858  0.40888888     0.01100
C49         C  0.46154057  0.68196222  0.40657752    -0.11000
C50         C  0.47522428  0.68722390  0.38171124     0.03600
C51         C  0.45920912  0.69232521  0.35836134    -0.10500
H52         H  0.39612133  0.69111616  0.38714597     0.09200
H53         H  0.47261179  0.67634562  0.42465411     0.06800
H54         H  0.46857554  0.69684622  0.33895851     0.06600
C55         C  0.73912854  0.53357338  0.88292448     0.03600
C56         C  0.73800280  0.53342012  0.91155946    -0.12500
C57         C  0.74229079  0.50909549  0.92613130     0.01100
C58         C  0.74781617  0.48529624  0.91096817    -0.11000
C59         C  0.74751232  0.48518755  0.88245167     0.03600
C60         C  0.74315761  0.50937673  0.86865982    -0.10500
H61         H  0.73359212  0.55221486  0.92210503     0.09200
H62         H  0.75244133  0.46641711  0.92099234     0.06800
H63         H  0.74267840  0.50938423  0.84655695     0.06600
C64         C  0.74586246  0.52932165  0.00168987     0.03600
C65         C  0.74582754  0.53126059  0.97313594    -0.12500
C66         C  0.74098391  0.50801576  0.95677779     0.01100
C67         C  0.73565506  0.48314018  0.97012867    -0.11000
C68         C  0.73669392  0.48110801  0.99854982     0.03600
C69         C  0.74173087  0.50425104  0.01412030    -0.10500
H70         H  0.75035897  0.55071631  0.96403590     0.09200
H71         H  0.73077611  0.46493461  0.95876767     0.06800
H72         H  0.74290063  0.50268844  0.03611169     0.06600
O73         O  0.65446251  0.29610632  0.72308456    -0.78000
C74         C  0.72232374  0.31379547  0.77409029     0.83100
O75         O  0.72638204  0.24593085  0.67903725    -0.79100
O76         O  0.75239887  0.23261354  0.77611092    -0.80600
O77         O  0.65357963  0.22440722  0.78573526    -0.80400
O78         O  0.63097523  0.25893433  0.73278164    -0.79000
Zn79       Zn  0.69420176  0.28593705  0.72595928     1.55700
O80         O  0.69147859  0.23562892  0.80766443    -0.80400
Cd81       Cd  0.66133356  0.23296632  0.74527929     1.59700
Cd82       Cd  0.72064735  0.22632161  0.71604911     1.59600
O83         O  0.65911319  0.19643416  0.72481660    -0.80400
O84         O  0.69798824  0.24971442  0.74072442    -1.90900
Cd85       Cd  0.71557180  0.25190705  0.77704855     1.59900
O86         O  0.70096320  0.18941840  0.70871317    -0.80400
O87         O  0.72375044  0.29165527  0.78713305    -0.79000
C88         C  0.72071324  0.26991199  0.67146619     0.83500
C89         C  0.63177217  0.28371089  0.72569935     0.83200
O90         O  0.71254177  0.31447671  0.75002916    -0.78000
C91         C  0.66725642  0.22635421  0.80768136     0.84000
O92         O  0.70944708  0.28664186  0.68779444    -0.78100
C93         C  0.67650040  0.18159226  0.71270840     0.84100
C94         C  0.76681241  0.22114633  0.75792013     0.84400
O95         O  0.75836440  0.21812918  0.73351091    -0.80500
O96         O  0.27768499  0.78515864  0.59464023    -0.78000
C97         C  0.32698446  0.71934430  0.58002753     0.83100
O98         O  0.23306519  0.71344974  0.64790826    -0.79100
O99         O  0.33168010  0.69218209  0.66134111    -0.80600
O100        O  0.33496660  0.79148579  0.66852324    -0.80400
O101        O  0.28352489  0.81037204  0.63172316    -0.79000
Zn102      Zn  0.27888957  0.74634576  0.60729717     1.55700
O103        O  0.35955268  0.75557071  0.65745701    -0.80400
Cd104      Cd  0.29542613  0.78128813  0.65932651     1.59700
Cd105      Cd  0.26993008  0.72073395  0.66765815     1.59600
O106        O  0.27367238  0.78362759  0.69508488    -0.80400
O107        O  0.29343266  0.74410499  0.64373443    -1.90900
Cd108      Cd  0.33066969  0.72893942  0.64178186     1.59900
O109        O  0.26100400  0.74118459  0.70400169    -0.80400
O110        O  0.34100263  0.72034548  0.60181813    -0.79000
C111        C  0.22514740  0.71976651  0.62402865     0.83500
C112        C  0.27912750  0.80824993  0.60626507     0.83200
O113        O  0.30223344  0.72668269  0.57981043    -0.78000
C114        C  0.35783247  0.77973484  0.66651624     0.84000
O115        O  0.24080350  0.73160268  0.60705557    -0.78100
C116        C  0.26282164  0.76614001  0.71085195     0.84100
C117        C  0.31398562  0.67639178  0.67181706     0.84400
O118        O  0.28941462  0.68385043  0.67561187    -0.80500
C119        C  0.07899214  0.51021715  0.17441051     0.03600
C120        C  0.05442022  0.52372441  0.17817111    -0.12500
C121        C  0.03039406  0.50926979  0.18231611     0.01100
C122        C  0.03086298  0.48091507  0.18236770    -0.11000
C123        C  0.05518109  0.46653610  0.17719108     0.03600
C124        C  0.07940235  0.48177217  0.17335846    -0.10500
H125        H  0.05418208  0.54568583  0.17890983     0.09200
H126        H  0.01205284  0.47047799  0.18683323     0.06800
H127        H  0.09860107  0.47198451  0.16964656     0.06600
C128        C  0.07771148  0.39214918  0.18043626     0.03600
C129        C  0.05279223  0.37881165  0.17710020    -0.12500
C130        C  0.02903553  0.39345824  0.17317633     0.01100
C131        C  0.03035920  0.42173221  0.17154779    -0.11000
C132        C  0.05494581  0.43599989  0.17635854     0.03600
C133        C  0.07878122  0.42063568  0.18070865    -0.10500
H134        H  0.05190104  0.35686682  0.17763370     0.09200
H135        H  0.01184918  0.43219326  0.16661341     0.06800
H136        H  0.09812326  0.43035204  0.18460653     0.06600
O137        O  0.83877267  0.60633312  0.21638690    -0.78000
C138        C  0.78237255  0.58306947  0.27515306     0.83100
O139        O  0.76548886  0.65497817  0.18138695    -0.79100
O140        O  0.73958812  0.65747371  0.27823253    -0.80600
O141        O  0.84062174  0.67276716  0.28698045    -0.80400
O142        O  0.86278387  0.64177045  0.23043838    -0.79000
Zn143      Zn  0.79953055  0.61396598  0.22476470     1.55700
O144        O  0.80149022  0.66456536  0.30821229    -0.80400
Cd145      Cd  0.83227865  0.66600005  0.24631340     1.59700
Cd146      Cd  0.77187207  0.67333132  0.21928010     1.59600
O147        O  0.83306345  0.70363322  0.22861578    -0.80400
O148        O  0.79569699  0.64925705  0.24165259    -1.90900
Cd149      Cd  0.77931088  0.64484437  0.27829916     1.59900
O150        O  0.79092339  0.71113178  0.21375547    -0.80400
O151        O  0.77904683  0.60470844  0.28887967    -0.79000
C152        C  0.76894405  0.63050735  0.17362081     0.83500
C153        C  0.86156593  0.61827486  0.21967281     0.83200
O154        O  0.78785108  0.58348081  0.24977807    -0.78000
C155        C  0.82616521  0.67250389  0.30854319     0.84000
O156        O  0.77978047  0.61294038  0.18906983    -0.78100
C157        C  0.81545280  0.71895331  0.21773532     0.84100
C158        C  0.72455744  0.66961358  0.26113967     0.84400
O159        O  0.73376677  0.67773008  0.23818232    -0.80500
C160        C  0.93651065  0.19939616  0.85410360     0.03600
C161        C  0.96503553  0.19880707  0.85485047    -0.12500
C162        C  0.97915504  0.20043562  0.88004040     0.01100
C163        C  0.96331038  0.20230826  0.90412113    -0.11000
C164        C  0.93486919  0.20135369  0.90335917     0.03600
C165        C  0.92168541  0.20058647  0.87830542    -0.10500
H166        H  0.97556645  0.19705124  0.83567635     0.09200
H167        H  0.97245457  0.20472720  0.92384897     0.06800
H168        H  0.89966444  0.20104334  0.87761334     0.06600
C169        C  0.05476689  0.20363068  0.85981417     0.03600
C170        C  0.06728118  0.20145570  0.88513733    -0.12500
C171        C  0.05186121  0.19751807  0.90857476     0.01100
C172        C  0.02346170  0.19666082  0.90676344    -0.11000
C173        C  0.00990967  0.20044567  0.88153632     0.03600
C174        C  0.02631563  0.20376431  0.85795738    -0.10500
H175        H  0.08927528  0.20158649  0.88644447     0.09200
H176        H  0.01262350  0.19222983  0.92526452     0.06800
H177        H  0.01763079  0.20623152  0.83801371     0.06600
O178        O  0.76709707  0.28695635  0.09151701    -0.78000
C179        C  0.82516591  0.22562863  0.07468618     0.83100
O180        O  0.73116352  0.21748025  0.14637873    -0.79100
O181        O  0.83036992  0.19599419  0.15581678    -0.80600
O182        O  0.83251603  0.29790033  0.15582005    -0.80400
O183        O  0.77334568  0.31229077  0.12837431    -0.79000
Zn184      Zn  0.77502356  0.24851752  0.10258330     1.55700
O185        O  0.85723986  0.26066801  0.14995395    -0.80400
Cd186      Cd  0.79269044  0.28501229  0.15336968     1.59700
Cd187      Cd  0.76889196  0.22460079  0.16380456     1.59600
O188        O  0.77695496  0.28612557  0.19209431    -0.80400
O189        O  0.79089682  0.24765860  0.13858249    -1.90900
Cd190      Cd  0.82826609  0.23300502  0.13670387     1.59900
O191        O  0.76385246  0.24395481  0.20139963    -0.80400
O192        O  0.83831486  0.22538888  0.09691376    -0.79000
C193        C  0.72334305  0.21970515  0.12173317     0.83500
C194        C  0.76607361  0.30979553  0.10358746     0.83200
O195        O  0.80034762  0.23289122  0.07390148    -0.78000
C196        C  0.85536997  0.28607511  0.15427028     0.84000
O197        O  0.73870128  0.22953412  0.10323466    -0.78100
C198        C  0.76776799  0.26856235  0.20868533     0.84100
C199        C  0.81252709  0.18006892  0.16595118     0.84400
O200        O  0.78802518  0.18757171  0.16959924    -0.80500
C201        C  0.43372261  0.20242031  0.01889941     0.03600
C202        C  0.46222549  0.20125054  0.02124165    -0.12500
C203        C  0.47911529  0.20478985  0.99799733     0.01100
C204        C  0.46629335  0.20970722  0.97276314    -0.11000
C205        C  0.43802086  0.20930205  0.97018996     0.03600
C206        C  0.42191796  0.20592231  0.99333090    -0.10500
H207        H  0.47076509  0.19705210  0.04103224     0.09200
H208        H  0.47793122  0.21379470  0.95448434     0.06800
H209        H  0.39995121  0.20530371  0.99136402     0.06600
C210        C  0.55246306  0.20591746  0.02482302     0.03600
C211        C  0.56711525  0.20315927  0.00057129    -0.12500
C212        C  0.55374974  0.20023652  0.97576978     0.01100
C213        C  0.52531524  0.19876997  0.97547846    -0.11000
C214        C  0.50972479  0.20316914  0.99943123     0.03600
C215        C  0.52392905  0.20669079  0.02426948    -0.10500
H216        H  0.58915474  0.20385908  0.00099691     0.09200
H217        H  0.51577890  0.19429132  0.95612396     0.06800
H218        H  0.51327456  0.21041220  0.04318201     0.06600
C219        C  0.24139232  0.86832305  0.88085506     0.03600
C220        C  0.24572074  0.89263289  0.86708113    -0.12500
C221        C  0.24890825  0.91679624  0.88139139     0.01100
C222        C  0.24792372  0.91676283  0.90985338    -0.11000
C223        C  0.24250007  0.89265285  0.92446349     0.03600
C224        C  0.23930211  0.86824117  0.90944223    -0.10500
H225        H  0.24690015  0.89269572  0.84500301     0.09200
H226        H  0.25175337  0.93574507  0.92028103     0.06800
H227        H  0.23513215  0.84925580  0.91958504     0.06600
C228        C  0.24376645  0.87230152  0.99990684     0.03600
C229        C  0.23737268  0.89700350  0.01231516    -0.12500
C230        C  0.23165789  0.91975029  0.99668280     0.01100
C231        C  0.23263861  0.91786962  0.96826455    -0.11000
C232        C  0.24009898  0.89350740  0.95501184     0.03600
C233        C  0.24533534  0.87052708  0.97132807    -0.10500
H234        H  0.23649457  0.89844317  0.03435371     0.09200
H235        H  0.22713436  0.93561642  0.95676809     0.06800
H236        H  0.25107303  0.85142438  0.96218952     0.06600
O237        O  0.33421792  0.10419364  0.71349750    -0.78000
C238        C  0.27357119  0.08853095  0.77496473     0.83100
O239        O  0.25818339  0.15137122  0.67837534    -0.79100
O240        O  0.24273294  0.16937747  0.77753004    -0.80600
O241        O  0.34359930  0.17471009  0.77602132    -0.80400
O242        O  0.35863851  0.14177906  0.71868755    -0.79000
Zn243      Zn  0.29569297  0.11415229  0.72320402     1.55700
O244        O  0.30697101  0.16828656  0.80185759    -0.80400
Cd245      Cd  0.33029139  0.16673242  0.73692628     1.59700
Cd246      Cd  0.26814291  0.17312443  0.71370000     1.59600
O247        O  0.32941610  0.20319379  0.71739890    -0.80400
O248        O  0.29318339  0.15076784  0.73688213    -1.90900
Cd249      Cd  0.27963453  0.15040786  0.77503751     1.59900
O250        O  0.28721691  0.20970214  0.70292237    -0.80400
O251        O  0.27262804  0.11114566  0.78752433    -0.79000
C252        C  0.26243934  0.12653957  0.67234129     0.83500
C253        C  0.35666823  0.11699521  0.71158929     0.83200
O254        O  0.28149489  0.08687501  0.75029957    -0.78000
C255        C  0.33168186  0.17574555  0.79903058     0.84000
O256        O  0.27527083  0.11113174  0.68840374    -0.78100
C257        C  0.31170931  0.21794103  0.70589209     0.84100
C258        C  0.22638903  0.17974236  0.76052822     0.84400
O259        O  0.23248214  0.18189048  0.73529683    -0.80500
C260        C  0.25707940  0.02894608  0.38004724     0.03600
C261        C  0.25057192  0.00435246  0.36714739    -0.12500
C262        C  0.24695860  0.98076300  0.38220912     0.01100
C263        C  0.24878519  0.98179318  0.41053952    -0.11000
C264        C  0.25622972  0.00591130  0.42424099     0.03600
C265        C  0.25997681  0.02974496  0.40862864    -0.10500
H266        H  0.24840608  0.00353829  0.34519140     0.09200
H267        H  0.24432622  0.96341971  0.42164881     0.06800
H268        H  0.26567449  0.04867117  0.41833028     0.06600
C269        C  0.25806915  0.02672629  0.49953487     0.03600
C270        C  0.25561557  0.02843675  0.47105373    -0.12500
C271        C  0.26023026  0.00538605  0.45452831     0.01100
C272        C  0.26784840  0.98098493  0.46736308    -0.11000
C273        C  0.26929672  0.97909080  0.49571815     0.03600
C274        C  0.26455043  0.00201979  0.51165199    -0.10500
H275        H  0.24957172  0.04745626  0.46212868     0.09200
H276        H  0.27259522  0.96307714  0.45555244     0.06800
H277        H  0.26555385  0.00056273  0.53365571     0.06600
O278        O  0.21147550  0.11285971  0.09672690    -0.78000
C279        C  0.15683508  0.17490962  0.08270784     0.83100
O280        O  0.25538509  0.18289613  0.14855596    -0.79100
O281        O  0.15795797  0.20719933  0.16296420    -0.80600
O282        O  0.15039016  0.10685271  0.16939415    -0.80400
O283        O  0.20361064  0.08726234  0.13311484    -0.79000
Zn284      Zn  0.20761961  0.15178763  0.10858918     1.55700
O285        O  0.12822901  0.14536256  0.16326624    -0.80400
Cd286      Cd  0.19043438  0.11632052  0.16060568     1.59700
Cd287      Cd  0.21864102  0.17609746  0.16945814     1.59600
O288        O  0.21024320  0.11395271  0.19733476    -0.80400
O289        O  0.19391562  0.15361366  0.14557022    -1.90900
Cd290      Cd  0.15708801  0.16972392  0.14478716     1.59900
O291        O  0.22589188  0.15555807  0.20624258    -0.80400
O292        O  0.14415544  0.17507978  0.10532207    -0.79000
C293        C  0.26179303  0.17908702  0.12356288     0.83500
C294        C  0.20997190  0.08975440  0.10807704     0.83200
O295        O  0.18185162  0.16854792  0.08125539    -0.78000
C296        C  0.12857432  0.12056067  0.17020306     0.84000
O297        O  0.24491678  0.16872457  0.10670194    -0.78100
C298        C  0.22129237  0.13105359  0.21344050     0.84100
C299        C  0.17579415  0.22168896  0.17504733     0.84400
O300        O  0.20010375  0.21339243  0.17860569    -0.80500
C301        C  0.91280926  0.89290302  0.20924134     0.03600
C302        C  0.93802196  0.88030427  0.20663521    -0.12500
C303        C  0.96159172  0.89554608  0.20253175     0.01100
C304        C  0.95979324  0.92364939  0.19998382    -0.11000
C305        C  0.93492085  0.93727633  0.20418976     0.03600
C306        C  0.91130893  0.92136033  0.20894570    -0.10500
H307        H  0.93929113  0.85842752  0.20782465     0.09200
H308        H  0.97810909  0.93448923  0.19448104     0.06800
H309        H  0.89176275  0.93063999  0.21232353     0.06600
C310        C  0.91035222  0.01033245  0.19522985     0.03600
C311        C  0.90991918  0.98197428  0.19759407    -0.12500
C312        C  0.93414275  0.96773531  0.20315627     0.01100
C313        C  0.95831534  0.98301461  0.20688749    -0.11000
C314        C  0.95910490  0.01092797  0.20212841     0.03600
C315        C  0.93498181  0.02450481  0.19686203    -0.10500
H316        H  0.89083044  0.97143761  0.19462310     0.09200
H317        H  0.97692140  0.97352457  0.21319548     0.06800
H318        H  0.93536077  0.04626692  0.19374036     0.06600
O319        O  0.15087696  0.79284625  0.21979124    -0.78000
C320        C  0.20907328  0.80827338  0.27876791     0.83100
O321        O  0.22402695  0.74823738  0.17694794    -0.79100
O322        O  0.24683805  0.73057032  0.27459323    -0.80600
O323        O  0.14593272  0.71833922  0.27851951    -0.80400
O324        O  0.12641819  0.75553323  0.22580745    -0.79000
Zn325      Zn  0.18984470  0.78336079  0.22572574     1.55700
O326        O  0.18348103  0.72538351  0.30246509    -0.80400
Cd327      Cd  0.15625682  0.72934654  0.23918885     1.59700
Cd328      Cd  0.21727541  0.72564456  0.21236192     1.59600
O329        O  0.15622555  0.69437366  0.21633659    -0.80400
O330        O  0.19299811  0.74639870  0.23786330    -1.90900
Cd331      Cd  0.20817957  0.74626011  0.27534480     1.59900
O332        O  0.19856184  0.68903328  0.20112937    -0.80400
O333        O  0.21119462  0.78534554  0.29030046    -0.79000
C334        C  0.21919699  0.77310609  0.17183442     0.83500
C335        C  0.12804021  0.78061595  0.22005334     0.83200
O336        O  0.20325516  0.81032343  0.25360387    -0.78000
C337        C  0.15889341  0.71729007  0.30094723     0.84000
O338        O  0.20809697  0.78829471  0.18958535    -0.78100
C339        C  0.17402592  0.68067112  0.20355396     0.84100
C340        C  0.26241047  0.72124431  0.25604722     0.84400
O341        O  0.25449354  0.71809937  0.23143539    -0.80500
C342        C  0.41044329  0.38912464  0.69264590     0.03600
C343        C  0.40955889  0.41754341  0.69195847    -0.12500
C344        C  0.43315887  0.43325059  0.69729827     0.01100
C345        C  0.45763062  0.41943610  0.70301122    -0.11000
C346        C  0.45871707  0.39102268  0.70267905     0.03600
C347        C  0.43505753  0.37609597  0.69758781    -0.10500
H348        H  0.39047518  0.42705717  0.68708871     0.09200
H349        H  0.47607630  0.43045147  0.70789128     0.06800
H350        H  0.43574784  0.35414437  0.69767978     0.06600
C351        C  0.40799112  0.50665048  0.70160711     0.03600
C352        C  0.40813132  0.47816621  0.70190244    -0.12500
C353        C  0.43246565  0.46374811  0.69671966     0.01100
C354        C  0.45639942  0.47887453  0.69113671    -0.11000
C355        C  0.45624173  0.50729541  0.69109644     0.03600
C356        C  0.43202281  0.52083863  0.69611019    -0.10500
H357        H  0.38942920  0.46761204  0.70680522     0.09200
H358        H  0.47534191  0.46887842  0.68650908     0.06800
H359        H  0.43186049  0.54282083  0.69567132     0.06600
C360        C  0.73850674  0.36367975  0.37938523     0.03600
C361        C  0.73679072  0.36386477  0.40795338    -0.12500
C362        C  0.74185653  0.38801225  0.42289152     0.01100
C363        C  0.74914537  0.41155786  0.40823762    -0.11000
C364        C  0.74957651  0.41158366  0.37976451     0.03600
C365        C  0.74465313  0.38762056  0.36551997    -0.10500
H366        H  0.73101125  0.34526730  0.41810550     0.09200
H367        H  0.75452444  0.43022391  0.41860718     0.06800
H368        H  0.74567691  0.38757584  0.34343785     0.06600
C369        C  0.73827881  0.36713318  0.49790684     0.03600
C370        C  0.74146679  0.36562944  0.46953091    -0.12500
C371        C  0.73914384  0.38914949  0.45336899     0.01100
C372        C  0.73391729  0.41407288  0.46671867    -0.11000
C373        C  0.73223364  0.41568814  0.49512175     0.03600
C374        C  0.73406763  0.39218124  0.51055159    -0.10500
H375        H  0.74565717  0.34608405  0.46043191     0.09200
H376        H  0.73082401  0.43253388  0.45536141     0.06800
H377        H  0.73206496  0.39334446  0.53254363     0.06600
O378        O  0.64667092  0.67475318  0.59866773    -0.78000
C379        C  0.62547011  0.61993778  0.66080484     0.83100
O380        O  0.69699287  0.71272438  0.67280713    -0.79100
O381        O  0.70564336  0.61260664  0.69282787    -0.80600
O382        O  0.71170191  0.61125049  0.59144237    -0.80400
O383        O  0.68464574  0.66937685  0.57487429    -0.79000
Zn384      Zn  0.65580300  0.66875136  0.63795389     1.55700
O385        O  0.70043649  0.58635900  0.62751822    -0.80400
Cd386      Cd  0.70873742  0.65109980  0.60415950     1.59700
Cd387      Cd  0.71518415  0.67494268  0.66624539     1.59600
O388        O  0.74766647  0.66729867  0.60532299    -0.80400
O389        O  0.69156721  0.65294831  0.64097196    -1.90900
Cd390      Cd  0.68754399  0.61549986  0.65519425     1.59900
O391        O  0.75356662  0.68112244  0.64832891    -0.80400
O392        O  0.64728684  0.60632680  0.66192479    -0.79000
C393        C  0.67321493  0.72108334  0.66685028     0.83500
C394        C  0.65957486  0.67564987  0.57622627     0.83200
O395        O  0.62584837  0.64465747  0.65341982    -0.78000
C396        C  0.70752225  0.58835366  0.60260482     0.84000
O397        O  0.65580009  0.70577455  0.65512263    -0.78100
C398        C  0.76262084  0.67716993  0.62419478     0.84100
C399        C  0.71569077  0.62948980  0.70981340     0.84400
O400        O  0.71964938  0.65434307  0.70343626    -0.80500
C401        C  0.74682651  0.48361335  0.52889341    -0.22000
C402        C  0.72102901  0.49029731  0.53889095     0.10000
C403        C  0.69871552  0.47295117  0.53344498     0.10400
C404        C  0.70288073  0.44894144  0.51861747    -0.16900
C405        C  0.72877149  0.44204499  0.50900557    -0.27300
C406        C  0.75103477  0.45962591  0.51409479     0.18700
C407        C  0.71793521  0.51532230  0.55541741     0.12700
C408        C  0.67067007  0.47947159  0.54377822    -0.11600
H409        H  0.68594709  0.43529823  0.51474496     0.13000
C410        C  0.77954212  0.45345165  0.50480001    -0.22500
H411        H  0.76387633  0.49703976  0.53301680     0.08600
C412        C  0.72647506  0.51664202  0.58282126     0.05000
C413        C  0.72277766  0.54070332  0.59773798    -0.19700
C414        C  0.71045713  0.56339699  0.58597391    -0.12000
C415        C  0.70091388  0.56155718  0.55871945     0.13700
C416        C  0.70553611  0.53781945  0.54365125    -0.22400
C417        C  0.73910086  0.49252638  0.59640943    -0.05500
H418        H  0.72967828  0.54185213  0.61867129     0.15200
C419        C  0.68437107  0.58329356  0.54513635    -0.15700
H420        H  0.69857449  0.53650003  0.52273647     0.09500
H421        H  0.79314367  0.45243641  0.52277680     0.07400
H422        H  0.78687725  0.46981655  0.49114332     0.08600
H423        H  0.78111268  0.43397852  0.49361632     0.07600
H424        H  0.66366010  0.49878138  0.53480751     0.02500
H425        H  0.67100805  0.48141730  0.56630882     0.03000
H426        H  0.65571266  0.46341574  0.53825626     0.06500
H427        H  0.74403934  0.49676907  0.61808181     0.05500
H428        H  0.75820310  0.48698609  0.58579120    -0.00300
H429        H  0.72476322  0.47506241  0.59568900     0.01200
H430        H  0.69614326  0.59217432  0.52801887     0.04900
H431        H  0.67793662  0.59971540  0.55905324     0.06800
H432        H  0.66537625  0.57416492  0.53690009     0.07700
C433        C  0.52037944  0.53909337  0.66089161    -0.22000
C434        C  0.52772042  0.55719014  0.68174860     0.10000
C435        C  0.51160515  0.55888772  0.70543495     0.10400
C436        C  0.48890259  0.54176194  0.70807630    -0.16900
C437        C  0.48145314  0.52350903  0.68725625    -0.27300
C438        C  0.49714381  0.52256717  0.66307139     0.18700
C439        C  0.55237209  0.57419963  0.67819019     0.12700
C440        C  0.51801329  0.57915503  0.72759764    -0.11600
H441        H  0.47659494  0.54285627  0.72640004     0.13000
C442        C  0.48946166  0.50546548  0.63872526    -0.22500
H443        H  0.53262351  0.53825669  0.64250771     0.08600
C444        C  0.57775417  0.56581097  0.68809400     0.05000
C445        C  0.60083396  0.58184409  0.68307996    -0.19700
C446        C  0.59941295  0.60592242  0.66784153    -0.12000
C447        C  0.57366410  0.61439245  0.65813525     0.13700
C448        C  0.55050711  0.59842358  0.66361041    -0.22400
C449        C  0.58062440  0.53948134  0.70321917    -0.05500
H450        H  0.62030269  0.57508997  0.69067891     0.15200
C451        C  0.57033311  0.63948326  0.64112022    -0.15700
H452        H  0.53081600  0.60453395  0.65597126     0.09500
H453        H  0.50566356  0.49045066  0.63465165     0.07400
H454        H  0.48732442  0.51867320  0.62061887     0.08600
H455        H  0.46995184  0.49448324  0.64129677     0.07600
H456        H  0.51745131  0.59995924  0.71914138     0.02500
H457        H  0.53850816  0.57540694  0.73604809     0.03000
H458        H  0.50311717  0.57798890  0.74458478     0.06500
H459        H  0.60200269  0.53576306  0.70926164     0.05500
H460        H  0.57385130  0.52239828  0.69003856    -0.00300
H461        H  0.56804225  0.53977146  0.72197484     0.01200
H462        H  0.58298064  0.63796418  0.62242909     0.04900
H463        H  0.57636127  0.65768002  0.65308065     0.06800
H464        H  0.54893053  0.64227415  0.63463463     0.07700
C465        C  0.03119053  0.86964922  0.22223033    -0.22000
C466        C  0.03498530  0.84934418  0.20259468     0.10000
C467        C  0.01569905  0.84567270  0.18169080     0.10400
C468        C  0.99242020  0.86188106  0.18142584    -0.16900
C469        C  0.98814160  0.88169888  0.20154403    -0.27300
C470        C  0.00796456  0.88593376  0.22199431     0.18700
C471        C  0.05860436  0.83123091  0.20527450     0.12700
C472        C  0.01962599  0.82450430  0.15988333    -0.11600
H473        H  0.97714458  0.85870258  0.16581592     0.13000
C474        C  0.00411042  0.90660358  0.24435397    -0.22500
H475        H  0.04617870  0.87224652  0.23821993     0.08600
C476        C  0.08475352  0.83931975  0.19689104     0.05000
C477        C  0.10667741  0.82191052  0.20115101    -0.19700
C478        C  0.10321812  0.79657933  0.21391492    -0.12000
C479        C  0.07663645  0.78836393  0.22186238     0.13700
C480        C  0.05473865  0.80586553  0.21736927    -0.22400
C481        C  0.08950096  0.86636896  0.18355293    -0.05500
H482        H  0.12675561  0.82840623  0.19473813     0.15200
C483        C  0.07099368  0.76176419  0.23582175    -0.15700
H484        H  0.03446024  0.79998792  0.22375716     0.09500
H485        H  0.00354689  0.92727119  0.23563664     0.07400
H486        H  0.02096718  0.90616719  0.25935057     0.08600
H487        H  0.98484313  0.90244097  0.25541253     0.07600
H488        H  0.02041775  0.80409192  0.16920521     0.02500
H489        H  0.03893416  0.82850373  0.14883074     0.03000
H490        H  0.00279113  0.82454555  0.14485516     0.06500
H491        H  0.11117144  0.86942644  0.17792568     0.05500
H492        H  0.08362570  0.88292260  0.19771296    -0.00300
H493        H  0.07713103  0.86770452  0.16473269     0.01200
H494        H  0.04916574  0.75932103  0.24112693     0.04900
H495        H  0.08278152  0.76062289  0.25503356     0.06800
H496        H  0.07647227  0.74469756  0.22212666     0.18100
C497        C  0.05430468  0.09844931  0.17589595    -0.22000
C498        C  0.05659833  0.07589618  0.19285970     0.10000
C499        C  0.08208593  0.06903586  0.20369506     0.10400
C500        C  0.10500555  0.08459380  0.19671193    -0.16900
C501        C  0.10306362  0.10684225  0.17900955    -0.27300
C502        C  0.07715568  0.11407004  0.16876070     0.18700
C503        C  0.03236840  0.05851473  0.19705771     0.12700
C504        C  0.08507375  0.04509999  0.22232841    -0.11600
H505        H  0.12466991  0.07905053  0.20482020     0.13000
C506        C  0.07337817  0.13729392  0.14931350    -0.22500
H507        H  0.03455095  0.10335733  0.16758389     0.08600
C508        C  0.01238744  0.06479767  0.21664917     0.05000
C509        C  0.98904466  0.04837302  0.21858561    -0.19700
C510        C  0.98527466  0.02595503  0.20121873    -0.12000
C511        C  0.00540056  0.01977592  0.18153989     0.13700
C512        C  0.02878478  0.03606749  0.17988088    -0.22400
C513        C  0.01562625  0.08896014  0.23521510    -0.05500
H514        H  0.97344612  0.05326515  0.23336814     0.15200
C515        C  0.00174211  0.99699041  0.16126492    -0.15700
H516        H  0.04414693  0.03169523  0.16465445     0.09500
H517        H  0.05195848  0.13896603  0.14247836     0.07400
H518        H  0.08619097  0.13427163  0.13092198     0.08600
H519        H  0.07889848  0.15669762  0.15945792     0.07600
H520        H  0.07880576  0.02625490  0.21155229     0.02500
H521        H  0.07206353  0.04788106  0.24060988     0.03000
H522        H  0.10639337  0.04265289  0.22921380     0.06500
H523        H  0.99819104  0.09093022  0.24946169     0.05500
H524        H  0.01697217  0.10775744  0.22295105    -0.00300
H525        H  0.03444576  0.08689592  0.24743088     0.01200
H526        H  0.98248269  0.99967756  0.14988839     0.04900
H527        H  0.00136020  0.97722099  0.17185028     0.06800
H528        H  0.01861220  0.99638035  0.14622395     0.07700
C529        C  0.20788650  0.86089693  0.33568946    -0.22000
C530        C  0.22425136  0.88125167  0.32437971     0.10000
C531        C  0.23507230  0.87787496  0.29798948     0.10400
C532        C  0.22960954  0.85387094  0.28356879    -0.16900
C533        C  0.21346148  0.83323735  0.29490959    -0.27300
C534        C  0.20182659  0.83711861  0.32110180     0.18700
C535        C  0.22926285  0.90635114  0.34016960     0.12700
C536        C  0.25216475  0.89972920  0.28500047    -0.11600
H537        H  0.23819002  0.85108406  0.26341780     0.13000
C538        C  0.18186060  0.81756392  0.33384120    -0.22500
H539        H  0.19919935  0.86392663  0.35577697     0.08600
C540        C  0.21022502  0.92755964  0.34057812     0.05000
C541        C  0.21651815  0.95159879  0.35460153    -0.19700
C542        C  0.24137295  0.95480421  0.36818914    -0.12000
C543        C  0.26043884  0.93345956  0.36780828     0.13700
C544        C  0.25397311  0.90937906  0.35396775    -0.22400
C545        C  0.18350553  0.92492706  0.32587582    -0.05500
H546        H  0.20202144  0.96805324  0.35493668     0.15200
C547        C  0.28808289  0.93564213  0.38087426    -0.15700
H548        H  0.26859540  0.89303145  0.35337548     0.09500
H549        H  0.16299905  0.82854051  0.33935976     0.07400
H550        H  0.19075663  0.80893619  0.35262682     0.08600
H551        H  0.17567787  0.80075969  0.32016793     0.07600
H552        H  0.27064846  0.90352359  0.29739756     0.02500
H553        H  0.24029256  0.91871198  0.28365211     0.03000
H554        H  0.25870507  0.89398361  0.26411214     0.06500
H555        H  0.17111634  0.94353497  0.32800159     0.05500
H556        H  0.17163695  0.90771498  0.33436410    -0.00300
H557        H  0.18718866  0.92127908  0.30385295     0.01200
H558        H  0.28991689  0.92004301  0.39696658     0.04900
H559        H  0.29219399  0.95573283  0.39016526     0.06800
H560        H  0.30400974  0.93209831  0.36523163     0.07700
C561        C  0.21971944  0.09369803  0.28128410    -0.22000
C562        C  0.24326097  0.10357173  0.29395890     0.10000
C563        C  0.25910029  0.12354080  0.28070584     0.10400
C564        C  0.25129397  0.13265735  0.25469420    -0.16900
C565        C  0.22819312  0.12196198  0.24149375    -0.27300
C566        C  0.21179483  0.10268488  0.25548076     0.18700
C567        C  0.25166115  0.09041614  0.31980531     0.12700
C568        C  0.28405357  0.13531414  0.29406974    -0.11600
H569        H  0.26363369  0.14770230  0.24437537     0.13000
C570        C  0.18550392  0.09173673  0.24384437    -0.22500
H571        H  0.20772578  0.07828970  0.29149893     0.08600
C572        C  0.23575577  0.09221840  0.34377194     0.05000
C573        C  0.23998237  0.07365648  0.36500985    -0.19700
C574        C  0.25975373  0.05341988  0.36272876    -0.12000
C575        C  0.27768251  0.05378882  0.34013629     0.13700
C576        C  0.27318641  0.07201134  0.31882612    -0.22400
C577        C  0.21377572  0.11312339  0.34653733    -0.05500
H578        H  0.22642048  0.07358483  0.38241730     0.15200
C579        C  0.30104143  0.03439159  0.33741586    -0.15700
H580        H  0.28556547  0.07068874  0.30060113     0.09500
H581        H  0.17435833  0.07890070  0.25872267     0.07400
H582        H  0.18959051  0.07889859  0.22571732     0.08600
H583        H  0.17199537  0.10873821  0.23824679     0.07600
H584        H  0.29927230  0.11922779  0.29746038     0.02500
H585        H  0.27843973  0.14453234  0.31395039     0.03000
H586        H  0.29367896  0.15124488  0.28131303     0.06500
H587        H  0.20380489  0.11222717  0.36682714     0.05500
H588        H  0.19789566  0.10983879  0.33085405    -0.00300
H589        H  0.22273984  0.13366916  0.34403259     0.01200
H590        H  0.29776288  0.02099608  0.31947429     0.04900
H591        H  0.30363707  0.02159741  0.35571748     0.06800
H592        H  0.32021433  0.04602283  0.33450665     0.07700
C593        C  0.31321836  0.29246378  0.68296864    -0.22000
C594        C  0.34067907  0.29868357  0.68746248     0.10000
C595        C  0.35851841  0.27815412  0.69574124     0.10400
C596        C  0.34843458  0.25203590  0.70005158    -0.16900
C597        C  0.32065870  0.24558629  0.69699501    -0.27300
C598        C  0.30288090  0.26611094  0.68754903     0.18700
C599        C  0.35088152  0.32688744  0.68524536     0.12700
C600        C  0.38824893  0.28396403  0.70087839    -0.11600
H601        H  0.36257581  0.23670083  0.70673579     0.13000
C602        C  0.27310318  0.26082801  0.68263607    -0.22500
H603        H  0.29974230  0.30846203  0.67642903     0.08600
C604        C  0.36547286  0.33547435  0.66205848     0.05000
C605        C  0.38287524  0.35806883  0.66412846    -0.19700
C606        C  0.38586483  0.37213327  0.68887537    -0.12000
C607        C  0.36909266  0.36515068  0.71122856     0.13700
C608        C  0.35162678  0.34267176  0.70903763    -0.22400
C609        C  0.36392135  0.31974616  0.63574563    -0.05500
H610        H  0.39573613  0.36350618  0.64704027     0.15200
C611        C  0.37059063  0.37963318  0.73827941    -0.15700
H612        H  0.34036996  0.33598752  0.72681975     0.09500
H613        H  0.26265164  0.27910446  0.67489399     0.07400
H614        H  0.26297806  0.25488213  0.70193894     0.08600
H615        H  0.27057685  0.24452649  0.66716667     0.07600
H616        H  0.39044368  0.29952441  0.71713607     0.02500
H617        H  0.39809623  0.29143755  0.68198642     0.03000
H618        H  0.39928994  0.26560314  0.70750884     0.06500
H619        H  0.37663281  0.32916716  0.61960228     0.05500
H620        H  0.34255930  0.31911215  0.62853751    -0.00300
H621        H  0.37108204  0.29872182  0.63882547     0.01200
H622        H  0.35020615  0.38755321  0.74364659     0.04900
H623        H  0.38501664  0.39696144  0.73824462     0.06800
H624        H  0.37706510  0.36524089  0.75427439     0.07700
C625        C  0.22650033  0.07372657  0.55140085    -0.22000
C626        C  0.25000137  0.08410950  0.56383348     0.10000
C627        C  0.27568841  0.07883314  0.55218289     0.10400
C628        C  0.27735565  0.06228463  0.52897570    -0.16900
C629        C  0.25404255  0.05030159  0.51764944    -0.27300
C630        C  0.22820766  0.05665920  0.52850207     0.18700
C631        C  0.24799973  0.09584687  0.59153906     0.12700
C632        C  0.30147943  0.08899920  0.56538676    -0.11600
H633        H  0.29711687  0.05689989  0.52090322     0.13000
C634        C  0.20228517  0.04445739  0.51752785    -0.22500
H635        H  0.20687444  0.07753353  0.56064155     0.08600
C636        C  0.24833774  0.12396431  0.59646935     0.05000
C637        C  0.25128650  0.13352855  0.62333828    -0.19700
C638        C  0.25412113  0.11551062  0.64530678    -0.12000
C639        C  0.25149882  0.08719951  0.64026944     0.13700
C640        C  0.24842617  0.07789439  0.61345274    -0.22400
C641        C  0.24606545  0.14372967  0.57335389    -0.05500
H642        H  0.25274663  0.15516326  0.62695363     0.15200
C643        C  0.25218002  0.06637933  0.66269543    -0.15700
H644        H  0.24768557  0.05628895  0.60933970     0.09500
H645        H  0.20565466  0.03120294  0.49957819     0.07400
H646        H  0.19225244  0.03221307  0.53363200     0.08600
H647        H  0.18838344  0.06090852  0.51131191     0.07600
H648        H  0.30309320  0.08082590  0.58634343     0.02500
H649        H  0.30146006  0.11144420  0.56636946     0.03000
H650        H  0.31979940  0.08264201  0.55383996     0.06500
H651        H  0.24652491  0.16503493  0.58072272     0.05500
H652        H  0.22659675  0.14025351  0.56245676    -0.00300
H653        H  0.26313265  0.14097484  0.55884504     0.01200
H654        H  0.23720170  0.07164146  0.67877185     0.04900
H655        H  0.27286511  0.06516011  0.67151765     0.06800
H656        H  0.24695162  0.04578743  0.65502496     0.07700
C657        C  0.26607168  0.83040556  0.05961681    -0.22000
C658        C  0.24270533  0.81450843  0.06356772     0.10000
C659        C  0.22248774  0.81371927  0.04319260     0.10400
C660        C  0.22506305  0.83058903  0.02035334    -0.16900
C661        C  0.24715009  0.84851531  0.01777841    -0.27300
C662        C  0.26853936  0.84746122  0.03695145     0.18700
C663        C  0.23744616  0.80324203  0.09105550     0.12700
C664        C  0.19755146  0.79612032  0.04629435    -0.11600
H665        H  0.20863432  0.83153423  0.00572268     0.13000
C666        C  0.29351646  0.86513910  0.03473771    -0.22500
H667        H  0.28162966  0.83091129  0.07522132     0.08600
C668        C  0.24917499  0.77906496  0.10034782     0.05000
C669        C  0.24323098  0.76992635  0.12685145    -0.19700
C670        C  0.22579523  0.78446585  0.14436863    -0.12000
C671        C  0.21408450  0.80890592  0.13465018     0.13700
C672        C  0.22030755  0.81787779  0.10831678    -0.22400
C673        C  0.26759151  0.76281938  0.08214943    -0.05500
H674        H  0.25222799  0.75123766  0.13383887     0.15200
C675        C  0.19440164  0.82561676  0.15120155    -0.15700
H676        H  0.21151464  0.83652453  0.10088723     0.09500
H677        H  0.31188529  0.85221983  0.03451442     0.07400
H678        H  0.29458591  0.87906539  0.05253440     0.08600
H679        H  0.29378648  0.87741743  0.01588285     0.07600
H680        H  0.18587907  0.80233388  0.06461704     0.02500
H681        H  0.20368467  0.77464150  0.04842028     0.03000
H682        H  0.18391174  0.79765403  0.02838420     0.06500
H683        H  0.27485169  0.74421455  0.09237808     0.05500
H684        H  0.28559289  0.77521764  0.07639701    -0.00300
H685        H  0.25647857  0.75667842  0.06342734     0.01200
H686        H  0.20461890  0.83382651  0.16963504     0.04900
H687        H  0.17651821  0.81306187  0.15702635     0.06800
H688        H  0.18667817  0.84322376  0.13961684     0.07700
C689        C  0.20149575  0.97349819  0.04324421    -0.22000
C690        C  0.22074585  0.99433929  0.04043918     0.10000
C691        C  0.24241825  0.99137259  0.02186034     0.10400
C692        C  0.24476519  0.96718337  0.00694662    -0.16900
C693        C  0.22600103  0.94590479  0.01034566    -0.27300
C694        C  0.20370051  0.94934935  0.02826125     0.18700
C695        C  0.21807667  0.01894064  0.05752584     0.12700
C696        C  0.26327065  0.01354810  0.01817264    -0.11600
H697        H  0.26181545  0.96448876  0.99320722     0.13000
C698        C  0.18172005  0.92822338  0.03179205    -0.22500
H699        H  0.18466817  0.97608668  0.05728412     0.08600
C700        C  0.20261463  0.04119952  0.04893487     0.05000
C701        C  0.20096733  0.06418280  0.06573261    -0.19700
C702        C  0.21416976  0.06531605  0.09108829    -0.12000
C703        C  0.22993226  0.04297989  0.09953875     0.13700
C704        C  0.23145951  0.01998595  0.08267520    -0.22400
C705        C  0.18768244  0.04055312  0.02218384    -0.05500
H706        H  0.18878832  0.08118838  0.05927931     0.15200
C707        C  0.24625781  0.04290202  0.12548428    -0.15700
H708        H  0.24351934  0.00284328  0.08900399     0.09500
H709        H  0.16168160  0.93728703  0.02716114     0.07400
H710        H  0.18159018  0.92102261  0.05317654     0.08600
H711        H  0.18422424  0.91050250  0.01811180     0.07600
H712        H  0.27369054  0.01767535  0.03780464     0.02500
H713        H  0.25321512  0.03231586  0.01118366     0.03000
H714        H  0.27890079  0.00792476  0.00285383     0.06500
H715        H  0.17647475  0.05964473  0.01858243     0.05500
H716        H  0.17277792  0.02356119  0.02208189    -0.00300
H717        H  0.20230032  0.03769827  0.00519421     0.01200
H718        H  0.23839036  0.02682626  0.13919852     0.04900
H719        H  0.24595769  0.06247604  0.13653612     0.06800
H720        H  0.26784247  0.03858243  0.12060789     0.07700
C721        C  0.24955420  0.01722686  0.79309702    -0.22000
C722        C  0.25897276  0.01545418  0.81992404     0.10000
C723        C  0.27151719  0.03808086  0.83231029     0.10400
C724        C  0.27521592  0.06182907  0.81724155    -0.16900
C725        C  0.26656269  0.06356291  0.79005498    -0.27300
C726        C  0.25268226  0.04119812  0.77809137     0.18700
C727        C  0.25571083  0.98974151  0.83489385     0.12700
C728        C  0.28109761  0.03707958  0.86141846    -0.11600
H729        H  0.28558613  0.07895067  0.82657803     0.13000
C730        C  0.23990996  0.04203497  0.75020415    -0.22500
H731        H  0.23937360  0.99988615  0.78394695     0.08600
C732        C  0.23135589  0.98324230  0.84862453     0.05000
C733        C  0.23001189  0.95959024  0.86428762    -0.19700
C734        C  0.25237205  0.94225823  0.86618402    -0.12000
C735        C  0.27664946  0.94859268  0.85206942     0.13700
C736        C  0.27799527  0.97233914  0.83659258    -0.22400
C737        C  0.20691611  0.00130420  0.84678403    -0.05500
H738        H  0.21132737  0.95435100  0.87480656     0.15200
C739        C  0.30155145  0.93104356  0.85319809    -0.15700
H740        H  0.29668228  0.97753725  0.82605119     0.09500
H741        H  0.21817001  0.03603735  0.75178333     0.07400
H742        H  0.25037738  0.02755905  0.73643978     0.08600
H743        H  0.24034044  0.06238578  0.74088049     0.07600
H744        H  0.29672171  0.02115456  0.86365556     0.02500
H745        H  0.26367154  0.03242093  0.87505076     0.03000
H746        H  0.29019070  0.05667001  0.86807298     0.06500
H747        H  0.18955930  0.99328629  0.85886677     0.05500
H748        H  0.20033531  0.00286032  0.82523669    -0.00300
H749        H  0.21209858  0.02182167  0.85462771     0.01200
H750        H  0.30658219  0.92372967  0.83238456     0.04900
H751        H  0.29896588  0.91317361  0.86654916     0.06800
H752        H  0.31894985  0.94313252  0.86114156     0.07700
C753        C  0.37986709  0.17217022  0.06468994    -0.22000
C754        C  0.36879416  0.19566928  0.07627520     0.10000
C755        C  0.38212579  0.22079158  0.07246835     0.10400
C756        C  0.40522353  0.22213300  0.05557415    -0.16900
C757        C  0.41515608  0.19889732  0.04242671    -0.27300
C758        C  0.40279988  0.17353678  0.04763746     0.18700
C759        C  0.34145608  0.19386853  0.08911698     0.12700
C760        C  0.37124100  0.24627408  0.08528397    -0.11600
H761        H  0.41452508  0.24160517  0.05122654     0.13000
C762        C  0.41302276  0.14815364  0.03405392    -0.22500
H763        H  0.36956125  0.15294787  0.06770965     0.08600
C764        C  0.31778892  0.19597937  0.07314779     0.05000
C765        C  0.29224045  0.19221108  0.08531796    -0.19700
C766        C  0.28951198  0.18619741  0.11319469    -0.12000
C767        C  0.31336526  0.18486640  0.12937931     0.13700
C768        C  0.33902624  0.18871532  0.11706687    -0.22400
C769        C  0.31952162  0.20169630  0.04304920    -0.05500
H770        H  0.27422830  0.19349072  0.07275420     0.15200
C771        C  0.31218475  0.17828455  0.15928446    -0.15700
H772        H  0.35733998  0.18712598  0.12914874     0.09500
H773        H  0.41138214  0.15000148  0.01159405     0.07400
H774        H  0.40117794  0.13000867  0.04039517     0.08600
H775        H  0.43461605  0.14497993  0.03960611     0.07600
H776        H  0.37085848  0.24406295  0.10777132     0.02500
H777        H  0.35030552  0.25006941  0.07794371     0.03000
H778        H  0.38400425  0.26420848  0.08022261     0.06500
H779        H  0.29909544  0.20268057  0.03354995     0.05500
H780        H  0.33109875  0.18542720  0.03265019    -0.00300
H781        H  0.32994113  0.22140941  0.03964829     0.01200
H782        H  0.30197851  0.15838501  0.16229259     0.04900
H783        H  0.30092700  0.19431002  0.17039148     0.06800
H784        H  0.33278802  0.17711086  0.16836979     0.07700
C785        C  0.38996047  0.22255524  0.91131774    -0.22000
C786        C  0.39630019  0.20076857  0.89412031     0.10000
C787        C  0.41823961  0.18376751  0.90050402     0.10400
C788        C  0.43242486  0.18801661  0.92488677    -0.16900
C789        C  0.42524832  0.20898099  0.94290436    -0.27300
C790        C  0.40438434  0.22709855  0.93554168     0.18700
C791        C  0.37894212  0.19535492  0.87015303     0.12700
C792        C  0.42628302  0.16086078  0.88184279    -0.11600
H793        H  0.44850822  0.17422121  0.93045858     0.13000
C794        C  0.39703576  0.25148182  0.95252369    -0.22500
H795        H  0.37340463  0.23587700  0.90596840     0.08600
C796        C  0.35637500  0.17771211  0.87186267     0.05000
C797        C  0.34091368  0.17240828  0.84846450    -0.19700
C798        C  0.34723332  0.18464554  0.82340557    -0.12000
C799        C  0.36906266  0.20364589  0.82224011     0.13700
C800        C  0.38500009  0.20817903  0.84552231    -0.22400
C801        C  0.34875425  0.16435494  0.89836698    -0.05500
H802        H  0.32416526  0.15808797  0.84965296     0.15200
C803        C  0.37563477  0.22046170  0.79746922    -0.15700
H804        H  0.40201736  0.22222441  0.84461210     0.09500
H805        H  0.37579025  0.24939152  0.95989229     0.07400
H806        H  0.39872296  0.27000555  0.93987034     0.08600
H807        H  0.41056530  0.25440999  0.97032188     0.07600
H808        H  0.43193869  0.16904404  0.86157312     0.02500
H809        H  0.40908122  0.14639838  0.87941997     0.03000
H810        H  0.44393268  0.14955055  0.88990301     0.06500
H811        H  0.33048090  0.15119517  0.89618258     0.05500
H812        H  0.34428971  0.18008485  0.91394712    -0.00300
H813        H  0.36574042  0.15163341  0.90561285     0.01200
H814        H  0.37723153  0.24213180  0.80349515     0.04900
H815        H  0.35983364  0.21945548  0.78151505     0.06800
H816        H  0.39540674  0.21402869  0.78875512     0.07700
C817        C  0.59716845  0.18786545  0.08389266    -0.22000
C818        C  0.61305881  0.21148345  0.08554503     0.10000
C819        C  0.60520573  0.23478036  0.07105545     0.10400
C820        C  0.58250760  0.23336191  0.05391736    -0.16900
C821        C  0.56816648  0.20897878  0.05022289    -0.27300
C822        C  0.57486594  0.18623038  0.06619441     0.18700
C823        C  0.64052418  0.20978015  0.09749200     0.12700
C824        C  0.62212858  0.26037355  0.07172906    -0.11600
H825        H  0.57751559  0.25059884  0.04128772     0.13000
C826        C  0.56025643  0.15942143  0.06354024    -0.22500
H827        H  0.60344251  0.16995834  0.09489378     0.08600
C828        C  0.64675246  0.21987878  0.12364020     0.05000
C829        C  0.67406454  0.22125516  0.13185267    -0.19700
C830        C  0.69507275  0.21246949  0.11453498    -0.12000
C831        C  0.68838702  0.20004019  0.08936618     0.13700
C832        C  0.66122705  0.19926743  0.08103024    -0.22400
C833        C  0.62469120  0.22931356  0.14265852    -0.05500
H834        H  0.67910617  0.23039934  0.15133232     0.15200
C835        C  0.70916623  0.18710259  0.07092542    -0.15700
H836        H  0.65616976  0.19083344  0.06121462     0.09500
H837        H  0.55203979  0.15338404  0.08371077     0.07400
H838        H  0.57470321  0.14372493  0.05641066     0.08600
H839        H  0.54305078  0.16004012  0.04905115     0.07600
H840        H  0.64300004  0.25610474  0.06434129     0.02500
H841        H  0.62322914  0.26848172  0.09278419     0.03000
H842        H  0.61341684  0.27636667  0.05860267     0.06500
H843        H  0.63311725  0.23654395  0.16238744     0.05500
H844        H  0.61046592  0.21227192  0.14682786    -0.00300
H845        H  0.61320911  0.24616596  0.13343851     0.01200
H846        H  0.70295126  0.16585228  0.06653557     0.04900
H847        H  0.72968611  0.18628045  0.08007747     0.06800
H848        H  0.71034329  0.19837367  0.05144247     0.07700
C849        C  0.81337139  0.10328685  0.17741775    -0.22000
C850        C  0.84113537  0.09928722  0.18180041     0.10000
C851        C  0.85906394  0.12169014  0.18197949     0.10400
C852        C  0.84880839  0.14769842  0.17785519    -0.16900
C853        C  0.82103151  0.15205520  0.17301148    -0.27300
C854        C  0.80300829  0.12939192  0.17286231     0.18700
C855        C  0.85176131  0.07157614  0.18538224     0.12700
C856        C  0.88921332  0.11808430  0.18594805    -0.11600
H857        H  0.86280861  0.16476550  0.17797369     0.13000
C858        C  0.77314376  0.13218255  0.16686349    -0.22500
H859        H  0.79986347  0.08582256  0.17712485     0.08600
C860        C  0.85724827  0.06135962  0.21155275     0.05000
C861        C  0.87403071  0.03867914  0.21412129    -0.19700
C862        C  0.88549698  0.02626710  0.19109729    -0.12000
C863        C  0.87781724  0.03491593  0.16484605     0.13700
C864        C  0.86086739  0.05747089  0.16230266    -0.22400
C865        C  0.84674407  0.07539685  0.23671723    -0.05500
H866        H  0.88011004  0.03203972  0.23421358     0.15200
C867        C  0.88857106  0.02188430  0.13924715    -0.15700
H868        H  0.85641952  0.06530671  0.14221558     0.09500
H869        H  0.76258645  0.11221508  0.16645860     0.07400
H870        H  0.77034906  0.14170182  0.14662643     0.08600
H871        H  0.76330122  0.14467784  0.18286808     0.07600
H872        H  0.89745671  0.10486660  0.16959609     0.02500
H873        H  0.89318705  0.10866703  0.20600359     0.03000
H874        H  0.90036253  0.13771430  0.18526123     0.06500
H875        H  0.85299867  0.06480502  0.25557286     0.05500
H876        H  0.82420881  0.07587041  0.23615432    -0.00300
H877        H  0.85469817  0.09647216  0.23773271     0.01200
H878        H  0.87128017  0.01473610  0.12654748     0.04900
H879        H  0.90164175  0.00419784  0.14343257     0.06800
H880        H  0.90063214  0.03693327  0.12751047     0.07700
C881        C  0.71824765  0.31870395  0.32102532    -0.22000
C882        C  0.74175349  0.30303890  0.31864431     0.10000
C883        C  0.76071354  0.30285977  0.34019564     0.10400
C884        C  0.75716483  0.32059984  0.36234595    -0.16900
C885        C  0.73531317  0.33866021  0.36303081    -0.27300
C886        C  0.71475515  0.33650612  0.34304370     0.18700
C887        C  0.74895844  0.29237331  0.29134887     0.12700
C888        C  0.78542100  0.28506803  0.33901417    -0.11600
H889        H  0.77284769  0.32224080  0.37775059     0.13000
C890        C  0.68980354  0.35398792  0.34358040    -0.22500
H891        H  0.70360871  0.31869109  0.30454421     0.08600
C892        C  0.73652359  0.26929573  0.27972172     0.05000
C893        C  0.74317170  0.26179704  0.25283176    -0.19700
C894        C  0.76177823  0.27709545  0.23722618    -0.12000
C895        C  0.77455365  0.30007566  0.24942219     0.13700
C896        C  0.76780770  0.30732077  0.27616249    -0.22400
C897        C  0.71645547  0.25261537  0.29575006    -0.05500
H898        H  0.73345816  0.24412878  0.24385759     0.15200
C899        C  0.79572549  0.31704299  0.23495866    -0.15700
H900        H  0.77710347  0.32514056  0.28534762     0.09500
H901        H  0.67137310  0.34088362  0.34325060     0.07400
H902        H  0.68967382  0.36728232  0.32540858     0.08600
H903        H  0.68870484  0.36689578  0.36209985     0.07600
H904        H  0.79835444  0.29061695  0.32134017     0.02500
H905        H  0.77895722  0.26356043  0.33697200     0.03000
H906        H  0.79794718  0.28709923  0.35771312     0.06500
H907        H  0.70889509  0.23494343  0.28382214     0.05500
H908        H  0.69874611  0.26520258  0.30151911    -0.00300
H909        H  0.72630970  0.24496879  0.31449694     0.01200
H910        H  0.78645542  0.32775709  0.21751409     0.04900
H911        H  0.81260368  0.30399777  0.22780257     0.06800
H912        H  0.80465004  0.33281530  0.24852795     0.07700
C913        C  0.13662042  0.19956861  0.01204406    -0.22000
C914        C  0.11043335  0.18840729  0.00989170     0.10000
C915        C  0.09940604  0.17357356  0.03177409     0.10400
C916        C  0.11486608  0.17018192  0.05543520    -0.16900
C917        C  0.14139863  0.18072699  0.05753303    -0.27300
C918        C  0.15234940  0.19584047  0.03560401     0.18700
C919        C  0.09529821  0.19124711  0.98406161     0.12700
C920        C  0.07152878  0.16086120  0.02990618    -0.11600
H921        H  0.10644894  0.15851445  0.07213171     0.13000
C922        C  0.18020784  0.20861022  0.03712267    -0.22500
H923        H  0.14485752  0.21095180  0.99506833     0.08600
C924        C  0.07703972  0.21268925  0.97978364     0.05000
C925        C  0.06239548  0.21372786  0.95528655    -0.19700
C926        C  0.06582660  0.19391264  0.93497947    -0.12000
C927        C  0.08395986  0.17224835  0.93951334     0.13700
C928        C  0.09861165  0.17136526  0.96392802    -0.22400
C929        C  0.07334599  0.23458159  0.00090427    -0.05500
H930        H  0.04866664  0.23040178  0.95166546     0.15200
C931        C  0.08793931  0.14940343  0.91942050    -0.15700
H932        H  0.11245969  0.15476551  0.96750195     0.09500
H933        H  0.18476017  0.22100308  0.01883151     0.07400
H934        H  0.19593270  0.19269388  0.03841057     0.08600
H935        H  0.18152100  0.22206128  0.05527324     0.07600
H936        H  0.07090301  0.14620762  0.01268991     0.02500
H937        H  0.05608272  0.17674157  0.02651891     0.03000
H938        H  0.06602546  0.14983161  0.04881193     0.06500
H939        H  0.05839707  0.24993549  0.99427303     0.05500
H940        H  0.09305008  0.24503473  0.00462783    -0.00300
H941        H  0.06596245  0.22561847  0.02025486     0.01200
H942        H  0.10928263  0.14954605  0.91205224     0.04900
H943        H  0.07426806  0.15051642  0.90158221     0.06800
H944        H  0.08373205  0.12978122  0.92961061     0.07700
C945        C  0.10629931  0.22382083  0.80650211    -0.22000
C946        C  0.11824654  0.19857002  0.80146427     0.10000
C947        C  0.10625908  0.17489397  0.81231864     0.10400
C948        C  0.08312540  0.17713084  0.82877741    -0.16900
C949        C  0.07238298  0.20251443  0.83553200    -0.27300
C950        C  0.08355779  0.22612143  0.82367033     0.18700
C951        C  0.14571785  0.19760777  0.78923773     0.12700
C952        C  0.11909771  0.14750631  0.80838092    -0.11600
H953        H  0.07477108  0.15916855  0.83841797     0.13000
C954        C  0.07298156  0.25400103  0.82999362    -0.22500
H955        H  0.11578987  0.24197750  0.79840259     0.08600
C956        C  0.15014829  0.19084363  0.76169844     0.05000
C957        C  0.17684058  0.18636455  0.75252371    -0.19700
C958        C  0.19913267  0.18828048  0.77040055    -0.12000
C959        C  0.19452662  0.19666636  0.79775100     0.13700
C960        C  0.16789085  0.20128314  0.80665716    -0.22400
C961        C  0.12671653  0.18813721  0.74218136    -0.05500
H962        H  0.18015625  0.18028640  0.73155246     0.15200
C963        C  0.21733082  0.20091355  0.81786945    -0.15700
H964        H  0.16416092  0.20676991  0.82774550     0.09500
H965        H  0.06692309  0.26404136  0.81077960     0.07400
H966        H  0.08918843  0.26627127  0.83993661     0.08600
H967        H  0.05503237  0.25360262  0.84366538     0.07600
H968        H  0.13996571  0.14769693  0.81692763     0.02500
H969        H  0.12011154  0.14237601  0.78640368     0.03000
H970        H  0.10734601  0.13125680  0.81876633     0.06500
H971        H  0.13370524  0.18284474  0.72131903     0.05500
H972        H  0.11567164  0.20762998  0.74119052    -0.00300
H973        H  0.11247382  0.17205653  0.74908697     0.01200
H974        H  0.23276367  0.21498207  0.80924407     0.04900
H975        H  0.22683463  0.18128423  0.82297122     0.06800
H976        H  0.20995357  0.20986328  0.83730076     0.07700
C977        C  0.88247380  0.18626432  0.95848744    -0.22000
C978        C  0.88638378  0.20851391  0.97583770     0.10000
C979        C  0.90722952  0.22746531  0.97029957     0.10400
C980        C  0.92291536  0.22443891  0.94664239    -0.16900
C981        C  0.91871924  0.20247135  0.92883538    -0.27300
C982        C  0.89872750  0.18266251  0.93529231     0.18700
C983        C  0.86907003  0.21115752  0.00028809     0.12700
C984        C  0.91310169  0.25066436  0.98952047    -0.11600
H985        H  0.93838460  0.23943790  0.94186444     0.13000
C986        C  0.89455052  0.15706908  0.91886757    -0.22500
H987        H  0.86690738  0.17137247  0.96334189     0.08600
C988        C  0.84592966  0.22778170  0.00047872     0.05000
C989        C  0.83142554  0.23131969  0.02484221    -0.19700
C990        C  0.83958980  0.21863529  0.04904096    -0.12000
C991        C  0.86217841  0.20086774  0.04834011     0.13700
C992        C  0.87654380  0.19738201  0.02388878    -0.22400
C993        C  0.83666217  0.24184263  0.97499963    -0.05500
H994        H  0.81411654  0.24476028  0.02513890     0.15200
C995        C  0.87124009  0.18519782  0.07297793    -0.15700
H996        H  0.89414855  0.18431637  0.02326759     0.09500
H997        H  0.87388401  0.15697632  0.90984892     0.07400
H998        H  0.89648672  0.13924341  0.93241889     0.08600
H999        H  0.90963753  0.15452313  0.90231716     0.07600
H1000       H  0.91854479  0.24263338  0.00985826     0.02500
H1001       H  0.89497660  0.26372827  0.99158656     0.03000
H1002       H  0.93027113  0.26344221  0.98221992     0.06500
H1003       H  0.81811324  0.25401259  0.97866883     0.05500
H1004       H  0.83198405  0.22654123  0.95901007    -0.00300
H1005       H  0.85283209  0.25566841  0.96743368     0.01200
H1006       H  0.85387125  0.17346040  0.08144407     0.04900
H1007       H  0.87951722  0.19918856  0.08869298     0.06800
H1008       H  0.88758479  0.17063200  0.06783736     0.07700
C1009       C  0.74176253  0.48129563  0.34860330    -0.22000
C1010       C  0.76577658  0.48328501  0.33339487     0.10000
C1011       C  0.78464949  0.46194899  0.33376927     0.10400
C1012       C  0.77894887  0.43886110  0.34935469    -0.16900
C1013       C  0.75486720  0.43678897  0.36456667    -0.27300
C1014       C  0.73588818  0.45817754  0.36402471     0.18700
C1015       C  0.77083904  0.50812408  0.31748551     0.12700
C1016       C  0.81059262  0.46349367  0.31751915    -0.11600
H1017       H  0.79328305  0.42229121  0.34966064     0.13000
C1018       C  0.70894290  0.45703207  0.37866636    -0.22500
H1019       H  0.72733190  0.49779156  0.34813460     0.08600
C1020       C  0.75918046  0.51190544  0.29157814     0.05000
C1021       C  0.76394707  0.53630209  0.27772958    -0.19700
C1022       C  0.78004149  0.55689696  0.28934210    -0.12000
C1023       C  0.79272616  0.55244300  0.31483192     0.13700
C1024       C  0.78750761  0.52828231  0.32875317    -0.22400
C1025       C  0.74166616  0.49024439  0.27870804    -0.05500
H1026       H  0.75451344  0.53959924  0.25809386     0.15200
C1027       C  0.81264117  0.57207905  0.32763429    -0.15700
H1028       H  0.79679251  0.52496803  0.34847335     0.09500
H1029       H  0.69225814  0.45959729  0.36372832     0.07400
H1030       H  0.70796193  0.47369719  0.39389303     0.08600
H1031       H  0.70526125  0.43764257  0.38933834     0.07600
H1032       H  0.82301295  0.48104252  0.32451149     0.02500
H1033       H  0.80579158  0.46594599  0.29558959     0.03000
H1034       H  0.82293360  0.44490488  0.31982699     0.06500
H1035       H  0.73435658  0.49634554  0.25826718     0.05500
H1036       H  0.72366518  0.48618866  0.29175758    -0.00300
H1037       H  0.75351562  0.47132300  0.27636570     0.01200
H1038       H  0.80410907  0.57996317  0.34703351     0.04900
H1039       H  0.81803470  0.58936906  0.31437270     0.06800
H1040       H  0.83189541  0.56139835  0.33209656     0.07700
C1041       C  0.85959401  0.78017667  0.20186366    -0.22000
C1042       C  0.84273410  0.80126902  0.21046320     0.10000
C1043       C  0.81559499  0.79557967  0.21777704     0.10400
C1044       C  0.80641705  0.76849299  0.21801238    -0.16900
C1045       C  0.82388230  0.74708111  0.21108103    -0.27300
C1046       C  0.85046923  0.75324017  0.20162656     0.18700
C1047       C  0.85492488  0.82871923  0.21288381     0.12700
C1048       C  0.79670620  0.81799951  0.22604974    -0.11600
H1049       H  0.78601109  0.76394362  0.22506199     0.13000
C1050       C  0.86978281  0.73210560  0.19090164    -0.22500
H1051       H  0.88028835  0.78477177  0.19563942     0.08600
C1052       C  0.86985283  0.83621860  0.23627876     0.05000
C1053       C  0.88633790  0.85951000  0.23561114    -0.19700
C1054       C  0.88856373  0.87520784  0.21194289    -0.12000
C1055       C  0.87202036  0.86878492  0.18921098     0.13700
C1056       C  0.85527964  0.84562519  0.19004923    -0.22400
C1057       C  0.86960802  0.81875261  0.26136400    -0.05500
H1058       H  0.89922836  0.86431942  0.25289269     0.15200
C1059       C  0.87290545  0.88470700  0.16311139    -0.15700
H1060       H  0.84377592  0.83975864  0.17211084     0.09500
H1061       H  0.88741823  0.73039780  0.20484700     0.07400
H1062       H  0.87727624  0.73825886  0.17048275     0.08600
H1063       H  0.86019523  0.71190149  0.18829353     0.07600
H1064       H  0.79464189  0.83254430  0.20901587     0.02500
H1065       H  0.80493651  0.82883084  0.24413076     0.03000
H1066       H  0.77615904  0.81011992  0.23125541     0.06500
H1067       H  0.88246402  0.82751175  0.27780718     0.05500
H1068       H  0.87747007  0.79830305  0.25636118    -0.00300
H1069       H  0.84853854  0.81680862  0.26923867     0.01200
H1070       H  0.87965170  0.87137392  0.14616521     0.04900
H1071       H  0.88684630  0.90238224  0.16401730     0.06800
H1072       H  0.85226146  0.89231421  0.15847356     0.07700
C1073       C  0.12943278  0.34414321  0.20967896    -0.22000
C1074       C  0.13795958  0.33087912  0.18584112     0.10000
C1075       C  0.12980267  0.34093459  0.16024502     0.10400
C1076       C  0.11244464  0.36332696  0.15917033    -0.16900
C1077       C  0.10228807  0.37530530  0.18302367    -0.27300
C1078       C  0.11146912  0.36611047  0.20860495     0.18700
C1079       C  0.14986944  0.30345288  0.18806672     0.12700
C1080       C  0.13736013  0.32663009  0.13412190    -0.11600
H1081       H  0.10489571  0.37010095  0.13963931     0.13000
C1082       C  0.10133859  0.37783976  0.23508735    -0.22500
H1083       H  0.13529052  0.33609906  0.22930312     0.08600
C1084       C  0.17761414  0.29809762  0.18336778     0.05000
C1085       C  0.18621288  0.27100516  0.18096505    -0.19700
C1086       C  0.16772769  0.24931143  0.18396674    -0.12000
C1087       C  0.14066424  0.25501056  0.19208498     0.13700
C1088       C  0.13199443  0.28191640  0.19323128    -0.22400
C1089       C  0.19799410  0.32086336  0.18099530    -0.05500
H1090       H  0.20713034  0.26683014  0.17555031     0.15200
C1091       C  0.12032371  0.23340294  0.19999779    -0.15700
H1092       H  0.11086989  0.28615540  0.19783984     0.09500
H1093       H  0.11885418  0.38538447  0.24722708     0.07400
H1094       H  0.09054044  0.36187466  0.24683143     0.08600
H1095       H  0.08722498  0.39496735  0.23216627     0.07600
H1096       H  0.12970447  0.30542502  0.13451070     0.02500
H1097       H  0.15971628  0.32650729  0.13150869     0.03000
H1098       H  0.12850962  0.33671074  0.11605457     0.06500
H1099       H  0.21886218  0.31313460  0.17755715     0.05500
H1100       H  0.19803193  0.33293288  0.20013452    -0.00300
H1101       H  0.19279664  0.33433512  0.16383176     0.01200
H1102       H  0.11131817  0.23858528  0.22010007     0.04900
H1103       H  0.12948145  0.21312579  0.20229055     0.06800
H1104       H  0.10382074  0.23235315  0.18463280     0.07700
C1105       C  0.95763323  0.36674063  0.18705808    -0.22000
C1106       C  0.95435706  0.34856792  0.16532476     0.10000
C1107       C  0.97519202  0.34575674  0.14579144     0.10400
C1108       C  0.99922408  0.36090903  0.14874952    -0.16900
C1109       C  0.00275967  0.37891549  0.17069028    -0.27300
C1110       C  0.98167939  0.38184780  0.19017356     0.18700
C1111       C  0.92891377  0.33261169  0.16335273     0.12700
C1112       C  0.97203677  0.32670840  0.12192491    -0.11600
H1113       H  0.01540334  0.35869805  0.13390004     0.13000
C1114       C  0.98407167  0.39985502  0.21497024    -0.22500
H1115       H  0.94148077  0.36876988  0.20197544     0.08600
C1116       C  0.92604447  0.30724007  0.17614886     0.05000
C1117       C  0.90179133  0.29244966  0.17284572    -0.19700
C1118       C  0.88046210  0.30246821  0.15691896    -0.12000
C1119       C  0.88376976  0.32772908  0.14354192     0.13700
C1120       C  0.90774033  0.34269460  0.14751419    -0.22400
C1121       C  0.94863062  0.29581393  0.19314635    -0.05500
H1122       H  0.89940743  0.27304782  0.18283949     0.15200
C1123       C  0.86344106  0.33902535  0.12367705    -0.15700
H1124       H  0.91036530  0.36200426  0.13736655     0.09500
H1125       H  0.98080435  0.38757000  0.23359142     0.07400
H1126       H  0.96831816  0.41581244  0.21415169     0.08600
H1127       H  0.00417900  0.40983125  0.21696725     0.07600
H1128       H  0.95429800  0.33277295  0.10949113     0.02500
H1129       H  0.96882909  0.30570888  0.12930500     0.03000
H1130       H  0.99029672  0.32689400  0.10860125     0.06500
H1131       H  0.94311041  0.27570861  0.20166490     0.05500
H1132       H  0.95320289  0.30976136  0.21036512    -0.00300
H1133       H  0.96716913  0.29337287  0.18048466     0.01200
H1134       H  0.85462590  0.35792567  0.13212432     0.04900
H1135       H  0.84676519  0.32481954  0.11843951     0.06800
H1136       H  0.87389244  0.34386051  0.10421044     0.07700
C1137       C  0.13134471  0.62139077  0.17757335    -0.22000
C1138       C  0.14991636  0.60018229  0.17940953     0.10000
C1139       C  0.17733396  0.60591654  0.18547462     0.10400
C1140       C  0.18508044  0.63270430  0.19187778    -0.16900
C1141       C  0.16591413  0.65375495  0.19237147    -0.27300
C1142       C  0.13887245  0.64809126  0.18391619     0.18700
C1143       C  0.13882515  0.57225169  0.17801094     0.12700
C1144       C  0.19821569  0.58378681  0.18535033    -0.11600
H1145       H  0.20591464  0.63695446  0.19768539     0.13000
C1146       C  0.11764256  0.66985213  0.18146763    -0.22500
H1147       H  0.11039967  0.61674766  0.17239972     0.08600
C1148       C  0.12981746  0.55926145  0.20199375     0.05000
C1149       C  0.11298167  0.53634667  0.19990971    -0.19700
C1150       C  0.10407803  0.52678153  0.17450546    -0.12000
C1151       C  0.11447511  0.53865470  0.15048098     0.13700
C1152       C  0.13194966  0.56121273  0.15253608    -0.22400
C1153       C  0.13585268  0.57097306  0.22978519    -0.05500
H1154       H  0.10455485  0.52742010  0.21825356     0.15200
C1155       C  0.10617331  0.52906070  0.12253703    -0.15700
H1156       H  0.13864621  0.57141486  0.13416737     0.09500
H1157       H  0.11200963  0.67774443  0.20187789     0.07400
H1158       H  0.09869357  0.66198061  0.17194203     0.08600
H1159       H  0.12546045  0.68657741  0.16853059     0.07600
H1160       H  0.19906349  0.57431480  0.16481544     0.02500
H1161       H  0.19284401  0.56802151  0.20047337     0.03000
H1162       H  0.21877984  0.59174445  0.19036472     0.06500
H1163       H  0.12661614  0.55862102  0.24628067     0.05500
H1164       H  0.12753557  0.59176424  0.23139219    -0.00300
H1165       H  0.15808561  0.57176772  0.23324097     0.01200
H1166       H  0.09560131  0.54561950  0.11172111     0.04900
H1167       H  0.09244563  0.51116383  0.12317468     0.06800
H1168       H  0.12455039  0.52333029  0.11075765     0.07700
C1169       C  0.96893616  0.54117735  0.21630744    -0.22000
C1170       C  0.95803319  0.55589786  0.19461844     0.10000
C1171       C  0.97058109  0.55483811  0.16879883     0.10400
C1172       C  0.99392923  0.53904736  0.16523577    -0.16900
C1173       C  0.00484399  0.52423865  0.18689934    -0.27300
C1174       C  0.99228307  0.52536074  0.21277171     0.18700
C1175       C  0.93330746  0.57214346  0.19946610     0.12700
C1176       C  0.95928734  0.57034794  0.14509597    -0.11600
H1177       H  0.00382390  0.53830858  0.14551200     0.13000
C1178       C  0.00393838  0.51060831  0.23680675    -0.22500
H1179       H  0.95917687  0.54221565  0.23608360     0.08600
C1180       C  0.90729117  0.56022714  0.19835816     0.05000
C1181       C  0.88447642  0.57602205  0.20432713    -0.19700
C1182       C  0.88688793  0.60362018  0.21164691    -0.12000
C1183       C  0.91325119  0.61567763  0.21197081     0.13700
C1184       C  0.93603720  0.59968866  0.20587274    -0.22400
C1185       C  0.90365486  0.53074026  0.19103004    -0.05500
H1186       H  0.86463828  0.56640754  0.20376754     0.15200
C1187       C  0.91790706  0.64520090  0.21861742    -0.15700
H1188       H  0.95622090  0.60860057  0.20643160     0.09500
H1189       H  0.99210896  0.51448603  0.25569411     0.07400
H1190       H  0.02518980  0.51744192  0.24034967     0.08600
H1191       H  0.00364212  0.48845658  0.23292162     0.07600
H1192       H  0.95936118  0.59234731  0.14988514     0.02500
H1193       H  0.93812704  0.56358142  0.14096298     0.03000
H1194       H  0.97146654  0.56717877  0.12629950     0.06500
H1195       H  0.88190053  0.52460873  0.19087739     0.05500
H1196       H  0.91434876  0.51794996  0.20606941    -0.00300
H1197       H  0.91217300  0.52684549  0.17044028     0.01200
H1198       H  0.91173068  0.64946353  0.23995053     0.04900
H1199       H  0.90619006  0.65801303  0.20437593     0.06800
H1200       H  0.93965564  0.65105845  0.21667640     0.07700
C1201       C  0.29685229  0.92248859  0.53985851    -0.22000
C1202       C  0.27536534  0.90374106  0.53840113     0.10000
C1203       C  0.25282180  0.90909258  0.52164061     0.10400
C1204       C  0.25209133  0.93336766  0.50693911    -0.16900
C1205       C  0.27318555  0.95255898  0.50898143    -0.27300
C1206       C  0.29608298  0.94687985  0.52530864     0.18700
C1207       C  0.27632694  0.87914411  0.55547824     0.12700
C1208       C  0.22923875  0.88953207  0.51988971    -0.11600
H1209       H  0.23451456  0.93787601  0.49453642     0.13000
C1210       C  0.32002240  0.96594347  0.52769969    -0.22500
H1211       H  0.31419124  0.91817862  0.55266927     0.08600
C1212       C  0.28722963  0.85469451  0.54559952     0.05000
C1213       C  0.28721376  0.83185233  0.56248688    -0.19700
C1214       C  0.27709923  0.83300574  0.58930701    -0.12000
C1215       C  0.26631779  0.85774825  0.59919890     0.13700
C1216       C  0.26594112  0.88043318  0.58202778    -0.22400
C1217       C  0.29922883  0.85284841  0.51740588    -0.05500
H1218       H  0.29579533  0.81313371  0.55487621     0.15200
C1219       C  0.25459899  0.86038715  0.62746539    -0.15700
H1220       H  0.25756855  0.89936883  0.58932654     0.09500
H1221       H  0.31806803  0.98416534  0.51478113     0.07400
H1222       H  0.32228539  0.97262766  0.54920224     0.08600
H1223       H  0.33878888  0.95528844  0.52130248     0.07600
H1224       H  0.22010909  0.88676737  0.54038994     0.02500
H1225       H  0.23627661  0.86964054  0.51211983     0.03000
H1226       H  0.21316774  0.89693709  0.50599928     0.06500
H1227       H  0.30705938  0.83225291  0.51293779     0.05500
H1228       H  0.31636554  0.86747096  0.51548721    -0.00300
H1229       H  0.28357788  0.85765656  0.50197670     0.01200
H1230       H  0.27079297  0.85778785  0.64289507     0.04900
H1231       H  0.23839449  0.84492546  0.63051298     0.06800
H1232       H  0.24551693  0.88064710  0.63093245     0.07700
C1233       C  0.36575053  0.56580017  0.72287392    -0.22000
C1234       C  0.34860240  0.56784247  0.70022925     0.10000
C1235       C  0.34625028  0.54553508  0.68212210     0.10400
C1236       C  0.36364495  0.52326549  0.68515886    -0.16900
C1237       C  0.38311160  0.52286606  0.70596399    -0.27300
C1238       C  0.38263015  0.54332683  0.72623438     0.18700
C1239       C  0.33786677  0.59500272  0.69304054     0.12700
C1240       C  0.32620338  0.54572505  0.65896852    -0.11600
H1241       H  0.36377662  0.50740488  0.66979318     0.13000
C1242       C  0.40105820  0.54272798  0.75068802    -0.22500
H1243       H  0.36751316  0.58269633  0.73697536     0.08600
C1244       C  0.31830386  0.60881111  0.70885187     0.05000
C1245       C  0.31064234  0.63526640  0.70147662    -0.19700
C1246       C  0.32236707  0.64833688  0.67884727    -0.12000
C1247       C  0.34167150  0.63408921  0.66281150     0.13700
C1248       C  0.34929164  0.60790441  0.67036695    -0.22400
C1249       C  0.30525742  0.59555802  0.73318682    -0.05500
H1250       H  0.29573725  0.64590777  0.71363709     0.15200
C1251       C  0.35388101  0.64575839  0.63712529    -0.15700
H1252       H  0.36457359  0.59736627  0.65855060     0.09500
H1253       H  0.38865029  0.54412934  0.76954630     0.07400
H1254       H  0.41540206  0.56017410  0.74999496     0.08600
H1255       H  0.41294330  0.52375715  0.75180778     0.07600
H1256       H  0.33108692  0.56223541  0.64450184     0.02500
H1257       H  0.30539899  0.54872464  0.66716296     0.03000
H1258       H  0.32638556  0.52633255  0.64740532     0.06500
H1259       H  0.28972643  0.60879532  0.74270995     0.05500
H1260       H  0.32080090  0.59112727  0.74883274    -0.00300
H1261       H  0.29517199  0.57636495  0.72682461     0.01200
H1262       H  0.36661990  0.63076692  0.62613497     0.04900
H1263       H  0.36717753  0.66333043  0.64208664     0.06800
H1264       H  0.33747961  0.65206088  0.62305912     0.07700
C1265       C  0.24410408  0.77023060  0.78664577    -0.22000
C1266       C  0.24113862  0.79825257  0.78980868     0.10000
C1267       C  0.24309381  0.81519976  0.76684700     0.10400
C1268       C  0.24845208  0.80374311  0.74127033    -0.16900
C1269       C  0.25285192  0.77575296  0.73796349    -0.27300
C1270       C  0.24999723  0.75867108  0.76104286     0.18700
C1271       C  0.23960498  0.81009268  0.81753139     0.12700
C1272       C  0.24096168  0.84558896  0.76949950    -0.11600
H1273       H  0.25024700  0.81704850  0.72385430     0.13000
C1274       C  0.25432237  0.72852564  0.75938695    -0.22500
H1275       H  0.24284468  0.75749170  0.80453206     0.08600
C1276       C  0.21495286  0.81937688  0.82878669     0.05000
C1277       C  0.21566180  0.83605329  0.85207301    -0.19700
C1278       C  0.24046792  0.84340696  0.86419809    -0.12000
C1279       C  0.26484818  0.83203638  0.85427171     0.13700
C1280       C  0.26408394  0.81541922  0.83109796    -0.22400
C1281       C  0.18813875  0.81250674  0.81564502    -0.05500
H1282       H  0.19704588  0.84505026  0.85958224     0.15200
C1283       C  0.29218282  0.83860692  0.86653152    -0.15700
H1284       H  0.28296526  0.80804778  0.82248488     0.09500
H1285       H  0.25191043  0.71869800  0.77955947     0.07400
H1286       H  0.27519735  0.72426106  0.75199921     0.08600
H1287       H  0.23915747  0.71920650  0.74543698     0.07600
H1288       H  0.25702845  0.85337766  0.78337741     0.02500
H1289       H  0.22079807  0.85118408  0.77779911     0.03000
H1290       H  0.24348118  0.85583285  0.74955246     0.06500
H1291       H  0.17084362  0.82141649  0.82706263     0.05500
H1292       H  0.18535072  0.79017774  0.81512715    -0.00300
H1293       H  0.18754681  0.82030385  0.79451463     0.01200
H1294       H  0.30234189  0.81953883  0.87251067     0.04900
H1295       H  0.29073156  0.85160110  0.88494775     0.06800
H1296       H  0.30501838  0.84924338  0.85127210     0.07700
C1297       C  0.58468659  0.22227177  0.90831821    -0.22000
C1298       C  0.60461228  0.20253113  0.90436761     0.10000
C1299       C  0.60745953  0.18156346  0.92354108     0.10400
C1300       C  0.58987323  0.18060511  0.94613504    -0.16900
C1301       C  0.56983871  0.20039266  0.95013705    -0.27300
C1302       C  0.56747160  0.22169282  0.93110902     0.18700
C1303       C  0.62283805  0.20528581  0.88046656     0.12700
C1304       C  0.62951901  0.16077740  0.92057726    -0.11600
H1305       H  0.59211213  0.16469070  0.96109378     0.13000
C1306       C  0.54788558  0.24466304  0.93545866    -0.22500
H1307       H  0.58302791  0.23858527  0.89370210     0.08600
C1308       C  0.61645055  0.19308045  0.85527025     0.05000
C1309       C  0.63221696  0.19934707  0.83227980    -0.19700
C1310       C  0.65401731  0.21794877  0.83366849    -0.12000
C1311       C  0.66091241  0.22947684  0.85933435     0.13700
C1312       C  0.64520990  0.22288900  0.88235224    -0.22400
C1313       C  0.59234814  0.17428473  0.85240816    -0.05500
H1314       H  0.62691431  0.19020077  0.81286403     0.15200
C1315       C  0.68377291  0.24973400  0.86262652    -0.15700
H1316       H  0.64975767  0.23230382  0.90183996     0.09500
H1317       H  0.52666555  0.23701391  0.93489418     0.07400
H1318       H  0.54996734  0.26034952  0.91942997     0.08600
H1319       H  0.55186940  0.25452785  0.95544520     0.07600
H1320       H  0.64967656  0.17102019  0.92055693     0.02500
H1321       H  0.62698629  0.14940409  0.90120965     0.03000
H1322       H  0.62911751  0.14598517  0.93754872     0.06500
H1323       H  0.59005385  0.16670495  0.83119368     0.05500
H1324       H  0.57347384  0.18511669  0.85809439    -0.00300
H1325       H  0.59476398  0.15652201  0.86590007     0.01200
H1326       H  0.68537373  0.25730425  0.88390901     0.04900
H1327       H  0.68027634  0.26747782  0.84930407     0.06800
H1328       H  0.70342669  0.24013995  0.85736225     0.07700
C1329       C  0.52331917  0.36144476  0.73306458    -0.22000
C1330       C  0.53329884  0.34657794  0.71082064     0.10000
C1331       C  0.51896073  0.34675232  0.68596872     0.10400
C1332       C  0.49487868  0.36166470  0.68400313    -0.16900
C1333       C  0.48478002  0.37652455  0.70623941    -0.27300
C1334       C  0.49918709  0.37635272  0.73117044     0.18700
C1335       C  0.55858380  0.33065229  0.71409734     0.12700
C1336       C  0.52926134  0.33149207  0.66144025    -0.11600
H1337       H  0.48377135  0.36177104  0.66490735     0.13000
C1338       C  0.48935719  0.39085041  0.75636450    -0.22500
H1339       H  0.53429434  0.36109427  0.75223569     0.08600
C1340       C  0.58436113  0.34322011  0.71458884     0.05000
C1341       C  0.60764174  0.32733328  0.71804711    -0.19700
C1342       C  0.60597832  0.29895336  0.72102784    -0.12000
C1343       C  0.57986061  0.28637045  0.71996191     0.13700
C1344       C  0.55663224  0.30246188  0.71664465    -0.22400
C1345       C  0.58732796  0.37340860  0.71113863    -0.05500
H1346       H  0.62726339  0.33734705  0.71866656     0.15200
C1347       C  0.57589661  0.25611706  0.72198517    -0.15700
H1348       H  0.53670400  0.29303267  0.71609062     0.09500
H1349       H  0.50463901  0.40631531  0.76262384     0.07400
H1350       H  0.48673236  0.37604172  0.77313556     0.08600
H1351       H  0.46963941  0.40107773  0.75347653     0.07600
H1352       H  0.53001019  0.30949987  0.66590208     0.02500
H1353       H  0.54995880  0.33883325  0.65608092     0.03000
H1354       H  0.51593583  0.33431032  0.64345806     0.06500
H1355       H  0.60896270  0.37994936  0.71141015     0.05500
H1356       H  0.57666962  0.38409999  0.72792369    -0.00300
H1357       H  0.57842619  0.37953840  0.69136232     0.01200
H1358       H  0.55424599  0.25010562  0.71953042     0.04900
H1359       H  0.58248840  0.24894333  0.74229392     0.06800
H1360       H  0.58762287  0.24578019  0.70567837     0.07700
C1361       C  0.73718269  0.27145583  0.59480602    -0.22000
C1362       C  0.73336812  0.29895829  0.58937553     0.10000
C1363       C  0.72657973  0.31679618  0.61076631     0.10400
C1364       C  0.72339385  0.30669390  0.63716072    -0.16900
C1365       C  0.72658098  0.27898253  0.64299014    -0.27300
C1366       C  0.73387467  0.26112296  0.62132626     0.18700
C1367       C  0.73629367  0.30930569  0.56127085     0.12700
C1368       C  0.72260249  0.34663287  0.60571378    -0.11600
H1369       H  0.71807657  0.32070230  0.65328973     0.13000
C1370       C  0.73778686  0.23117965  0.62550643    -0.22500
H1371       H  0.74250960  0.25804328  0.57815938     0.08600
C1372       C  0.76150602  0.31911620  0.55162314     0.05000
C1373       C  0.76212223  0.33579744  0.52854965    -0.19700
C1374       C  0.73805379  0.34277976  0.51515531    -0.12000
C1375       C  0.71319666  0.33074477  0.52327340     0.13700
C1376       C  0.71266012  0.31399044  0.54621377    -0.22400
C1377       C  0.78740414  0.31338291  0.56672741    -0.05500
H1378       H  0.78113294  0.34515246  0.52224207     0.15200
C1379       C  0.68666850  0.33664194  0.50929272    -0.15700
H1380       H  0.69332692  0.30624903  0.55363721     0.09500
H1381       H  0.75467062  0.22778164  0.64001945     0.07400
H1382       H  0.74305860  0.22060419  0.60621166     0.08600
H1383       H  0.71873956  0.22187124  0.63335698     0.07600
H1384       H  0.70561983  0.34959575  0.59121466     0.02500
H1385       H  0.74146615  0.35558353  0.59704846     0.03000
H1386       H  0.71766714  0.35780830  0.62474761     0.06500
H1387       H  0.80532354  0.32269311  0.55654198     0.05500
H1388       H  0.79058324  0.29116358  0.56765282    -0.00300
H1389       H  0.78615580  0.32164090  0.58775757     0.01200
H1390       H  0.67726109  0.31734577  0.50222951     0.04900
H1391       H  0.68913707  0.34991470  0.49129984     0.06800
H1392       H  0.67264902  0.34668536  0.52385522     0.07700
C1393       C  0.82732461  0.19811513  0.79953469    -0.22000
C1394       C  0.84867798  0.20265095  0.78123539     0.10000
C1395       C  0.84289644  0.20958450  0.75405502     0.10400
C1396       C  0.81577125  0.21434049  0.74648211    -0.16900
C1397       C  0.79444941  0.21203077  0.76552450    -0.27300
C1398       C  0.80029125  0.20252294  0.79208098     0.18700
C1399       C  0.87657989  0.20234198  0.79245028     0.12700
C1400       C  0.86524458  0.21177356  0.73318151    -0.11600
H1401       H  0.81135315  0.22084346  0.72592996     0.13000
C1402       C  0.77829917  0.19670348  0.81275726    -0.22500
H1403       H  0.83199846  0.19211283  0.82020351     0.08600
C1404       C  0.88857407  0.22647863  0.80252511     0.05000
C1405       C  0.91105235  0.22489745  0.81993712    -0.19700
C1406       C  0.92106404  0.19978964  0.82836393    -0.12000
C1407       C  0.91019591  0.17572573  0.81693171     0.13700
C1408       C  0.88820387  0.17732015  0.79885130    -0.22400
C1409       C  0.87610137  0.25375520  0.79715030    -0.05500
H1410       H  0.91912439  0.24323528  0.82920345     0.15200
C1411       C  0.92005276  0.14807762  0.82492974    -0.15700
H1412       H  0.87870551  0.15882456  0.79143799     0.09500
H1413       H  0.78654741  0.18681468  0.83122151     0.07400
H1414       H  0.76283772  0.18282473  0.80378310     0.08600
H1415       H  0.76856648  0.21576553  0.81954715     0.07600
H1416       H  0.87575284  0.19202120  0.73138973     0.02500
H1417       H  0.88026119  0.22749779  0.73924703     0.03000
H1418       H  0.85718890  0.21714431  0.71281379     0.06500
H1419       H  0.88759424  0.27038794  0.80731707     0.05500
H1420       H  0.85492475  0.25412063  0.80496535    -0.00300
H1421       H  0.87596603  0.25794599  0.77500869     0.01200
H1422       H  0.90327387  0.13662177  0.83484570     0.04900
H1423       H  0.93747334  0.14897085  0.83919170     0.06800
H1424       H  0.92668690  0.13688493  0.80644335     0.07700
C1425       C  0.72019241  0.42414048  0.04795529    -0.22000
C1426       C  0.74160070  0.40640285  0.04236348     0.10000
C1427       C  0.75988500  0.41224547  0.02099560     0.10400
C1428       C  0.75669536  0.43608477  0.00600248    -0.16900
C1429       C  0.73584640  0.45438216  0.01210050    -0.27300
C1430       C  0.71700619  0.44808587  0.03302521     0.18700
C1431       C  0.74528976  0.38218084  0.05956150     0.12700
C1432       C  0.78333006  0.39377516  0.01468026    -0.11600
H1433       H  0.77128365  0.44108574  0.99019076     0.13000
C1434       C  0.69331685  0.46601304  0.04000027    -0.22500
H1435       H  0.70607741  0.41941102  0.06428075     0.08600
C1436       C  0.75938929  0.38376833  0.08445170     0.05000
C1437       C  0.76507894  0.35989488  0.09863261    -0.19700
C1438       C  0.75726260  0.33429217  0.08840850    -0.12000
C1439       C  0.74216920  0.33296932  0.06374678     0.13700
C1440       C  0.73635869  0.35700074  0.04977588    -0.22400
C1441       C  0.76910125  0.41061755  0.09562706    -0.05500
H1442       H  0.77650955  0.36128473  0.11743543     0.15200
C1443       C  0.73194540  0.30659055  0.05182865    -0.15700
H1444       H  0.72542805  0.35614828  0.03063495     0.09500
H1445       H  0.69545122  0.47357357  0.06122902     0.07400
H1446       H  0.67413427  0.45414520  0.03832651     0.08600
H1447       H  0.69155026  0.48364000  0.02625105     0.07600
H1448       H  0.77556199  0.37341846  0.00878824     0.02500
H1449       H  0.79650008  0.39190266  0.03290149     0.03000
H1450       H  0.79598721  0.40159935  0.99765721     0.06500
H1451       H  0.78009373  0.40825874  0.11519710     0.05500
H1452       H  0.75146648  0.42405036  0.09927745    -0.00300
H1453       H  0.78312341  0.42040552  0.08085111     0.01200
H1454       H  0.71910579  0.30985653  0.03357313     0.04900
H1455       H  0.71939796  0.29564484  0.06710111     0.06800
H1456       H  0.74929875  0.29386981  0.04531792     0.07700
C1457       C  0.76171473  0.62629182  0.09636849    -0.22000
C1458       C  0.75334494  0.59926250  0.09334787     0.10000
C1459       C  0.74758443  0.58359424  0.11662147     0.10400
C1460       C  0.75138133  0.59499063  0.14251800    -0.16900
C1461       C  0.76096361  0.62168646  0.14581084    -0.27300
C1462       C  0.76558740  0.63779009  0.12238237     0.18700
C1463       C  0.75288951  0.58667377  0.06593879     0.12700
C1464       C  0.73821286  0.55453266  0.11413020    -0.11600
H1465       H  0.74764133  0.58267960  0.16034077     0.13000
C1466       C  0.77600491  0.66649320  0.12450846    -0.22500
H1467       H  0.76609473  0.63807516  0.07833192     0.08600
C1468       C  0.72896159  0.58543735  0.05022347     0.05000
C1469       C  0.72815475  0.56866082  0.02703697    -0.19700
C1470       C  0.75064142  0.55292826  0.01962682    -0.12000
C1471       C  0.77516442  0.55565715  0.03437182     0.13700
C1472       C  0.77602425  0.57268099  0.05725848    -0.22400
C1473       C  0.70396499  0.60069707  0.05876214    -0.05500
H1474       H  0.70928933  0.56619417  0.01590149     0.15200
C1475       C  0.80026879  0.53977209  0.02732720    -0.15700
H1476       H  0.79440190  0.57376805  0.06939170     0.09500
H1477       H  0.77943354  0.67559231  0.10413435     0.07400
H1478       H  0.79563174  0.66693346  0.13561899     0.08600
H1479       H  0.76096232  0.67920804  0.13542170     0.07600
H1480       H  0.75385955  0.54240405  0.10338661     0.02500
H1481       H  0.71892617  0.55348203  0.10249021     0.03000
H1482       H  0.73459780  0.54521849  0.13437086     0.06500
H1483       H  0.68692831  0.59738726  0.04429447     0.05500
H1484       H  0.70861866  0.62272262  0.05954558    -0.00300
H1485       H  0.69720371  0.59390948  0.07921696     0.01200
H1486       H  0.81751342  0.55396598  0.02382520     0.04900
H1487       H  0.79777099  0.52727526  0.00866250     0.06800
H1488       H  0.80541346  0.52616275  0.04447472     0.07700
C1489       C  0.72863738  0.58415921  0.77139145    -0.22000
C1490       C  0.72742943  0.60287092  0.79281066     0.10000
C1491       C  0.72438039  0.63059720  0.78701365     0.10400
C1492       C  0.72153264  0.63886731  0.75972703    -0.16900
C1493       C  0.72161740  0.61997259  0.73806485    -0.27300
C1494       C  0.72581021  0.59215848  0.74418858     0.18700
C1495       C  0.72960441  0.59217570  0.82091954     0.12700
C1496       C  0.72403530  0.65130134  0.80960886    -0.11600
H1497       H  0.71850426  0.66014261  0.75541026     0.13000
C1498       C  0.72773562  0.57052433  0.72244866    -0.22500
H1499       H  0.73145589  0.56292563  0.77613657     0.08600
C1500       C  0.70655769  0.58194200  0.83478503     0.05000
C1501       C  0.71012831  0.56543299  0.85774010    -0.19700
C1502       C  0.73621028  0.55851156  0.86666461    -0.12000
C1503       C  0.75916511  0.57046675  0.85401394     0.13700
C1504       C  0.75555673  0.58728722  0.83138129    -0.22400
C1505       C  0.67832473  0.58686282  0.82421217    -0.05500
H1506       H  0.69260009  0.55590032  0.86721296     0.15200
C1507       C  0.78778485  0.56433537  0.86277766    -0.15700
H1508       H  0.77323561  0.59503699  0.82062740     0.09500
H1509       H  0.70777383  0.56758954  0.71236281     0.07400
H1510       H  0.73352418  0.55061455  0.73104527     0.08600
H1511       H  0.74344597  0.57624668  0.70723010     0.07600
H1512       H  0.74343737  0.65053577  0.82106389     0.02500
H1513       H  0.70694848  0.64700302  0.82375133     0.03000
H1514       H  0.72156347  0.67215456  0.80164773     0.06500
H1515       H  0.66260842  0.57721770  0.83730543     0.05500
H1516       H  0.67625742  0.57835928  0.80334211    -0.00300
H1517       H  0.67433757  0.60893986  0.82367210     0.01200
H1518       H  0.79871654  0.55401291  0.84591169     0.04900
H1519       H  0.78854968  0.55121212  0.88101961     0.06800
H1520       H  0.79855370  0.58355119  0.86781236     0.07700
C1521       C  0.76448765  0.43169127  0.82892085    -0.22000
C1522       C  0.74422539  0.41235244  0.83431243     0.10000
C1523       C  0.72668369  0.41597819  0.85676194     0.10400
C1524       C  0.72912080  0.43943407  0.87278161    -0.16900
C1525       C  0.74878982  0.45933791  0.86697421    -0.27300
C1526       C  0.76722236  0.45505523  0.84517664     0.18700
C1527       C  0.74147113  0.38827497  0.81639862     0.12700
C1528       C  0.70506802  0.39527984  0.86350123    -0.11600
H1529       H  0.71500027  0.44269044  0.88940862     0.13000
C1530       C  0.79026552  0.47431399  0.83883850    -0.22500
H1531       H  0.77824055  0.42851268  0.81196771     0.08600
C1532       C  0.72404218  0.38825019  0.79366579     0.05000
C1533       C  0.71912779  0.36390407  0.77953250    -0.19700
C1534       C  0.73107778  0.33945401  0.78775274    -0.12000
C1535       C  0.74992897  0.34004078  0.80969175     0.13700
C1536       C  0.75479382  0.36448340  0.82365851    -0.22400
C1537       C  0.71014084  0.41381615  0.78481437    -0.05500
H1538       H  0.70497830  0.36383214  0.76261320     0.15200
C1539       C  0.76521771  0.31524827  0.81861609    -0.15700
H1540       H  0.76842152  0.36490011  0.84102216     0.09500
H1541       H  0.78731380  0.48307716  0.81828616     0.07400
H1542       H  0.80975412  0.46313388  0.83908814     0.08600
H1543       H  0.79213458  0.49108087  0.85381455     0.07600
H1544       H  0.71465724  0.37548597  0.86783907     0.02500
H1545       H  0.69092908  0.39288150  0.84605709     0.03000
H1546       H  0.69300861  0.40131539  0.88165247     0.06500
H1547       H  0.69714495  0.41033647  0.76664448     0.05500
H1548       H  0.72563006  0.42942295  0.77959747    -0.00300
H1549       H  0.69709385  0.42158886  0.80153304     0.01200
H1550       H  0.77596426  0.30615000  0.80093775     0.04900
H1551       H  0.75105874  0.30022232  0.82772487     0.06800
H1552       H  0.78069124  0.32023080  0.83434129     0.07700
C1553       C  0.33970572  0.71833597  0.26214807    -0.22000
C1554       C  0.34220130  0.70427602  0.28673095     0.10000
C1555       C  0.31869231  0.69412502  0.29975362     0.10400
C1556       C  0.29315262  0.69881580  0.28822092    -0.16900
C1557       C  0.29034628  0.71379470  0.26416095    -0.27300
C1558       C  0.31405199  0.72351750  0.25074945     0.18700
C1559       C  0.36889280  0.70338449  0.30063374     0.12700
C1560       C  0.32044572  0.67932678  0.32648501    -0.11600
H1561       H  0.27508150  0.69150751  0.29859968     0.13000
C1562       C  0.31333106  0.74092235  0.22561102    -0.22500
H1563       H  0.35782105  0.72648250  0.25250233     0.08600
C1564       C  0.38571110  0.68037987  0.29945724     0.05000
C1565       C  0.40775105  0.67843914  0.31756017    -0.19700
C1566       C  0.41319008  0.69907588  0.33661910    -0.12000
C1567       C  0.39768583  0.72308615  0.33603290     0.13700
C1568       C  0.37570892  0.72489456  0.31808102    -0.22400
C1569       C  0.37980824  0.65763781  0.27975524    -0.05500
H1570       H  0.41966225  0.66006141  0.31804106     0.15200
C1571       C  0.40314966  0.74671093  0.35486299    -0.15700
H1572       H  0.36291713  0.74268980  0.31868950     0.09500
H1573       H  0.32398720  0.73041122  0.20869153     0.07400
H1574       H  0.32392859  0.76043759  0.22980461     0.08600
H1575       H  0.29259708  0.74585725  0.21874702     0.07600
H1576       H  0.32986235  0.69268050  0.34214314     0.02500
H1577       H  0.33293302  0.66086185  0.32404291     0.03000
H1578       H  0.30008251  0.67301101  0.33402005     0.06500
H1579       H  0.39492957  0.64114906  0.28144773     0.05500
H1580       H  0.38045312  0.66549397  0.25861375    -0.00300
H1581       H  0.35936583  0.64890052  0.28375864     0.01200
H1582       H  0.40649870  0.76530616  0.34264229     0.04900
H1583       H  0.42141735  0.74385237  0.36767762     0.06800
H1584       H  0.38536892  0.74980088  0.36844979     0.07700
C1585       C  0.40976618  0.70738724  0.47910617    -0.22000
C1586       C  0.38784166  0.68975208  0.48365581     0.10000
C1587       C  0.38182072  0.66928572  0.46442054     0.10400
C1588       C  0.39784352  0.66708219  0.44077723    -0.16900
C1589       C  0.41958477  0.68507023  0.43589262    -0.27300
C1590       C  0.42557978  0.70551732  0.45537909     0.18700
C1591       C  0.37059665  0.69449836  0.50796114     0.12700
C1592       C  0.35820833  0.65020069  0.46865934    -0.11600
H1593       H  0.39296682  0.65174002  0.42566135     0.13000
C1594       C  0.44750171  0.72648172  0.45060288    -0.22500
H1595       H  0.41397696  0.72324131  0.49389379     0.08600
C1596       C  0.37775925  0.68449426  0.53375694     0.05000
C1597       C  0.36249875  0.69215314  0.55667470    -0.19700
C1598       C  0.34026939  0.70979592  0.55448908    -0.12000
C1599       C  0.33269189  0.71919843  0.52829583     0.13700
C1600       C  0.34798953  0.71134106  0.50542695    -0.22400
C1601       C  0.40178546  0.66610859  0.53710528    -0.05500
H1602       H  0.36830727  0.68465719  0.57652843     0.15200
C1603       C  0.30945369  0.73849349  0.52419470    -0.15700
H1604       H  0.34282316  0.71903140  0.48546554     0.09500
H1605       H  0.46771427  0.71676288  0.45008253     0.07400
H1606       H  0.44799217  0.74200341  0.46704998     0.08600
H1607       H  0.44382566  0.73704327  0.43105224     0.07600
H1608       H  0.33903288  0.66184578  0.46990623     0.02500
H1609       H  0.36101083  0.63881710  0.48787713     0.03000
H1610       H  0.35629524  0.63535025  0.45169495     0.06500
H1611       H  0.40453812  0.65997076  0.55865207     0.05500
H1612       H  0.42060010  0.67665230  0.53033994    -0.00300
H1613       H  0.39880425  0.64750042  0.52465108     0.01200
H1614       H  0.30744446  0.74458195  0.50254679     0.04900
H1615       H  0.31282191  0.75719005  0.53643733     0.06800
H1616       H  0.29003124  0.72866808  0.53026705     0.07700
C1617       C  0.60673530  0.70356820  0.52713129    -0.22000
C1618       C  0.61440031  0.69073688  0.50288951     0.10000
C1619       C  0.63809084  0.67488665  0.50217232     0.10400
C1620       C  0.65304382  0.67124896  0.52618178    -0.16900
C1621       C  0.64469491  0.68292030  0.55099348    -0.27300
C1622       C  0.62150880  0.69991379  0.55124757     0.18700
C1623       C  0.59642696  0.69291094  0.47888324     0.12700
C1624       C  0.64717388  0.66133695  0.47618709    -0.11600
H1625       H  0.67077446  0.65835721  0.52573781     0.13000
C1626       C  0.61221322  0.71457158  0.57659816    -0.22500
H1627       H  0.58863226  0.71595163  0.52728537     0.08600
C1628       C  0.57439105  0.67485545  0.47514539     0.05000
C1629       C  0.55844300  0.67683726  0.45162489    -0.19700
C1630       C  0.56398238  0.69650598  0.43176913    -0.12000
C1631       C  0.58535030  0.71542904  0.43622137     0.13700
C1632       C  0.60149049  0.71316935  0.45962909    -0.22400
C1633       C  0.56811389  0.65313164  0.49571632    -0.05500
H1634       H  0.54214621  0.66231798  0.44822866     0.15200
C1635       C  0.59139953  0.73847797  0.41706708    -0.15700
H1636       H  0.61815449  0.72730071  0.46290007     0.09500
H1637       H  0.59531315  0.72868858  0.57225772     0.07400
H1638       H  0.62927916  0.72666598  0.58523249     0.08600
H1639       H  0.60462034  0.69988570  0.59190379     0.07600
H1640       H  0.65117443  0.67689477  0.46039818     0.02500
H1641       H  0.63109526  0.64723587  0.46881347     0.03000
H1642       H  0.66607311  0.64956462  0.47914381     0.06500
H1643       H  0.55030169  0.64059659  0.48956902     0.05500
H1644       H  0.56351753  0.66256601  0.51575255    -0.00300
H1645       H  0.58584396  0.63954803  0.49787306     0.01200
H1646       H  0.59083183  0.75792864  0.42850273     0.04900
H1647       H  0.57648162  0.74000298  0.40029292     0.06800
H1648       H  0.61197833  0.73592427  0.40815878     0.07700
C1649       C  0.60144310  0.65781665  0.30879162    -0.22000
C1650       C  0.61384548  0.68178550  0.29966673     0.10000
C1651       C  0.60105335  0.70682474  0.30458927     0.10400
C1652       C  0.57748764  0.70754300  0.32078656    -0.16900
C1653       C  0.56652097  0.68377899  0.33212702    -0.27300
C1654       C  0.57795067  0.65850984  0.32505152     0.18700
C1655       C  0.64206338  0.68045352  0.28899831     0.12700
C1656       C  0.61302272  0.73283548  0.29382737    -0.11600
H1657       H  0.56887790  0.72691297  0.32646129     0.13000
C1658       C  0.56691391  0.63211651  0.33584146    -0.22500
H1659       H  0.61119299  0.63858658  0.30479618     0.08600
C1660       C  0.66436502  0.68379320  0.30673644     0.05000
C1661       C  0.69082448  0.68115781  0.29652958    -0.19700
C1662       C  0.69580337  0.67442599  0.26911784    -0.12000
C1663       C  0.67327495  0.67046180  0.25140654     0.13700
C1664       C  0.64672901  0.67409003  0.26154550    -0.22400
C1665       C  0.66025111  0.68927945  0.33671547    -0.05500
H1666       H  0.70783865  0.68384038  0.31029178     0.15200
C1667       C  0.67592355  0.66072206  0.22236960    -0.15700
H1668       H  0.62948194  0.67091280  0.24817658     0.09500
H1669       H  0.58254371  0.62222400  0.34858869     0.07400
H1670       H  0.56170697  0.61851603  0.31851698     0.08600
H1671       H  0.54831269  0.63475610  0.34831008     0.07600
H1672       H  0.61415887  0.73180055  0.27126676     0.02500
H1673       H  0.63376621  0.73609753  0.30207099     0.03000
H1674       H  0.60050879  0.75060565  0.29956758     0.06500
H1675       H  0.67987506  0.69089217  0.34775432     0.05500
H1676       H  0.64828892  0.67251275  0.34595224    -0.00300
H1677       H  0.64920939  0.70856377  0.33972310     0.01200
H1678       H  0.66355312  0.64200288  0.21958727     0.04900
H1679       H  0.69689745  0.65560322  0.21634174     0.06800
H1680       H  0.66821415  0.67647864  0.20837022     0.07700
C1681       C  0.07726362  0.71455041  0.40257344    -0.22000
C1682       C  0.09404681  0.69260601  0.39620037     0.10000
C1683       C  0.09493810  0.67015598  0.41383913     0.10400
C1684       C  0.07950503  0.67052564  0.43798333    -0.16900
C1685       C  0.06310577  0.69277670  0.44464107    -0.27300
C1686       C  0.06177823  0.71494057  0.42657216     0.18700
C1687       C  0.11161325  0.69469243  0.37171866     0.12700
C1688       C  0.11224524  0.64598921  0.40719747    -0.11600
H1689       H  0.08060598  0.65367156  0.45198327     0.13000
C1690       C  0.04505506  0.73959147  0.43314130    -0.22500
H1691       H  0.07684793  0.73177386  0.38897068     0.08600
C1692       C  0.10100626  0.69143275  0.34530783     0.05000
C1693       C  0.11739814  0.69765337  0.32274076    -0.19700
C1694       C  0.14425527  0.70740126  0.32581114    -0.12000
C1695       C  0.15529756  0.70908441  0.35256733     0.13700
C1696       C  0.13873572  0.70272934  0.37504949    -0.22400
C1697       C  0.07224041  0.68171376  0.34099251    -0.05500
H1698       H  0.10872558  0.69562104  0.30256412     0.15200
C1699       C  0.18409175  0.71820381  0.35808307    -0.15700
H1700       H  0.14666138  0.70502229  0.39552906     0.09500
H1701       H  0.04726202  0.75545390  0.41730989     0.07400
H1702       H  0.05166806  0.74843836  0.45290240     0.08600
H1703       H  0.02323262  0.73394410  0.43436268     0.07600
H1704       H  0.13392306  0.65221265  0.40595242     0.02500
H1705       H  0.10587009  0.63719062  0.38733662     0.03000
H1706       H  0.11032200  0.63000177  0.42293399     0.06500
H1707       H  0.06722708  0.67981827  0.31901822     0.05500
H1708       H  0.05779250  0.69620211  0.35034599    -0.00300
H1709       H  0.06945425  0.66152688  0.35051724     0.01200
H1710       H  0.18708767  0.73939909  0.35118513     0.04900
H1711       H  0.19853913  0.70456180  0.34747484     0.06800
H1712       H  0.18902970  0.71767528  0.38013825     0.07700
C1713       C  0.11058995  0.72991662  0.56435215    -0.22000
C1714       C  0.11811176  0.70662314  0.57857729     0.10000
C1715       C  0.10161794  0.68317306  0.57709379     0.10400
C1716       C  0.07899836  0.68291492  0.55966160    -0.16900
C1717       C  0.07266981  0.70560962  0.54384786    -0.27300
C1718       C  0.08808948  0.72970302  0.54692901     0.18700
C1719       C  0.14505199  0.70650573  0.59193310     0.12700
C1720       C  0.10843509  0.65826606  0.59320836    -0.11600
H1721       H  0.06721533  0.66442940  0.55708034     0.13000
C1722       C  0.08204083  0.75510031  0.53121333    -0.22500
H1723       H  0.12323712  0.74797471  0.56573078     0.08600
C1724       C  0.16832855  0.69829552  0.57735386     0.05000
C1725       C  0.19400645  0.70156472  0.58921483    -0.19700
C1726       C  0.19713717  0.71338784  0.61508790    -0.12000
C1727       C  0.17368244  0.72137191  0.62987744     0.13700
C1728       C  0.14789036  0.71745202  0.61815628    -0.22400
C1729       C  0.16619367  0.68718023  0.54876645    -0.05500
H1730       H  0.21191260  0.69570045  0.57779734     0.15200
C1731       C  0.17483525  0.73574343  0.65703524    -0.15700
H1732       H  0.12994281  0.72417866  0.62900657     0.09500
H1733       H  0.09957753  0.76020836  0.51788646     0.07400
H1734       H  0.07864208  0.77209967  0.54568449     0.08600
H1735       H  0.06366650  0.75313208  0.51830893     0.07600
H1736       H  0.10842447  0.66328607  0.61526987     0.02500
H1737       H  0.12881573  0.65072541  0.58737049     0.03000
H1738       H  0.09345110  0.64169026  0.58967193     0.06500
H1739       H  0.18643059  0.68206616  0.54020780     0.05500
H1740       H  0.15677152  0.70244703  0.53528771    -0.00300
H1741       H  0.15354845  0.66849341  0.54860160     0.01200
H1742       H  0.16445555  0.75556993  0.65542722     0.04900
H1743       H  0.19568960  0.73992998  0.66428984     0.06800
H1744       H  0.16418190  0.72333189  0.67259802     0.07700
C1745       C  0.88054882  0.66954013  0.57085161    -0.22000
C1746       C  0.87253831  0.69267699  0.58533141     0.10000
C1747       C  0.88928067  0.71602838  0.58488225     0.10400
C1748       C  0.91218808  0.71660248  0.56763267    -0.16900
C1749       C  0.91866341  0.69424992  0.55109566    -0.27300
C1750       C  0.90341042  0.67001185  0.55378870     0.18700
C1751       C  0.84485651  0.69272790  0.59750969     0.12700
C1752       C  0.88241129  0.74052913  0.60184749    -0.11600
H1753       H  0.92382147  0.73520649  0.56548850     0.13000
C1754       C  0.90979968  0.64483637  0.53759313    -0.22500
H1755       H  0.86790053  0.65147304  0.57154212     0.08600
C1756       C  0.82236379  0.70155943  0.58221050     0.05000
C1757       C  0.79597002  0.69740474  0.59232805    -0.19700
C1758       C  0.79126268  0.68411831  0.61717264    -0.12000
C1759       C  0.81395856  0.67564675  0.63275116     0.13700
C1760       C  0.84042877  0.68041655  0.62280122    -0.22400
C1761       C  0.82612436  0.71421159  0.55454042    -0.05500
H1762       H  0.77875690  0.70377946  0.58025820     0.15200
C1763       C  0.81143884  0.65982910  0.65884216    -0.15700
H1764       H  0.85774182  0.67316599  0.63420561     0.09500
H1765       H  0.89258331  0.63993638  0.52379904     0.07400
H1766       H  0.91287022  0.62763597  0.55171289     0.08600
H1767       H  0.92850481  0.64701113  0.52514048     0.07600
H1768       H  0.88202706  0.73487843  0.62370185     0.02500
H1769       H  0.86219990  0.74842998  0.59609195     0.03000
H1770       H  0.89761303  0.75704518  0.59913945     0.06500
H1771       H  0.80638896  0.71957654  0.54514357     0.05500
H1772       H  0.83658558  0.69980621  0.54069301    -0.00300
H1773       H  0.83849041  0.73300627  0.55628550     0.01200
H1774       H  0.82244719  0.64037915  0.65665919     0.04900
H1775       H  0.79030736  0.65470424  0.66451815     0.06800
H1776       H  0.82073021  0.67163423  0.67577296     0.07700
C1777       C  0.90760465  0.68285465  0.40906809    -0.22000
C1778       C  0.88578009  0.70047972  0.40566144     0.10000
C1779       C  0.88073424  0.72080112  0.42523584     0.10400
C1780       C  0.89794249  0.72312527  0.44793146    -0.16900
C1781       C  0.91981402  0.70533663  0.45152336    -0.27300
C1782       C  0.92457455  0.68479958  0.43185163     0.18700
C1783       C  0.86827970  0.69641294  0.38157148     0.12700
C1784       C  0.85693447  0.73954621  0.42240316    -0.11600
H1785       H  0.89398239  0.73845925  0.46327692     0.13000
C1786       C  0.94647766  0.66389125  0.43536215    -0.22500
H1787       H  0.91102090  0.66713620  0.39397335     0.08600
C1788       C  0.87497798  0.70814848  0.35634765     0.05000
C1789       C  0.86010868  0.70073495  0.33313697    -0.19700
C1790       C  0.83885152  0.68156435  0.33447435    -0.12000
C1791       C  0.83178752  0.67026906  0.36008505     0.13700
C1792       C  0.84660118  0.67797745  0.38331688    -0.22400
C1793       C  0.89832670  0.72789502  0.35383277    -0.05500
H1794       H  0.86554871  0.70953997  0.31369591     0.15200
C1795       C  0.80982432  0.64902360  0.36302872    -0.15700
H1796       H  0.84195609  0.66884489  0.40281546     0.09500
H1797       H  0.96681328  0.67357330  0.43419595     0.07400
H1798       H  0.94562907  0.64812594  0.41916340     0.08600
H1799       H  0.94400883  0.65360281  0.45528160     0.07600
H1800       H  0.83775145  0.72757184  0.42204604     0.02500
H1801       H  0.85875387  0.75116479  0.40319044     0.03000
H1802       H  0.85581878  0.75420603  0.43959393     0.06500
H1803       H  0.90087908  0.73514908  0.33260191     0.05500
H1804       H  0.91750671  0.71801869  0.36007712    -0.00300
H1805       H  0.89470054  0.74575590  0.36712301     0.01200
H1806       H  0.80824711  0.64148899  0.38425523     0.04900
H1807       H  0.81437457  0.63144469  0.34964636     0.06800
H1808       H  0.78982715  0.65764511  0.35754654     0.07700
C1809       C  0.40411523  0.06681054  0.67640828    -0.22000
C1810       C  0.42884099  0.07347197  0.68890899     0.10000
C1811       C  0.43024782  0.09573239  0.70696496     0.10400
C1812       C  0.40653437  0.11011577  0.71316251    -0.16900
C1813       C  0.38130453  0.10257403  0.70195491    -0.27300
C1814       C  0.38026363  0.08108801  0.68264352     0.18700
C1815       C  0.45251774  0.05551876  0.68485317     0.12700
C1816       C  0.45665950  0.10378487  0.72030564    -0.11600
H1817       H  0.40756456  0.12667646  0.72764522     0.13000
C1818       C  0.35434250  0.07326830  0.66817836    -0.22500
H1819       H  0.40337131  0.04987228  0.66235346     0.08600
C1820       C  0.45600826  0.03245937  0.70128153     0.05000
C1821       C  0.48007340  0.01758150  0.69916424    -0.19700
C1822       C  0.50070072  0.02508266  0.68083132    -0.12000
C1823       C  0.49635181  0.04716504  0.66303450     0.13700
C1824       C  0.47234982  0.06229470  0.66548867    -0.22400
C1825       C  0.43457269  0.02397763  0.72153237    -0.05500
H1826       H  0.48321741  0.00051495  0.71258408     0.15200
C1827       C  0.51639669  0.05433118  0.64089571    -0.15700
H1828       H  0.46919250  0.07973765  0.65258150     0.09500
H1829       H  0.35789725  0.05756251  0.65232260     0.07400
H1830       H  0.34565452  0.09127697  0.65800641     0.08600
H1831       H  0.33940859  0.06479011  0.68283705     0.07600
H1832       H  0.47186671  0.10915093  0.70446089     0.02500
H1833       H  0.46444163  0.08669583  0.73258169     0.03000
H1834       H  0.45419998  0.12155881  0.73401768     0.06500
H1835       H  0.44056699  0.00555594  0.73286411     0.05500
H1836       H  0.41525974  0.01944665  0.71072594    -0.00300
H1837       H  0.43114915  0.04051949  0.73651578     0.01200
H1838       H  0.52021979  0.03626445  0.62793602     0.04900
H1839       H  0.53582945  0.06166456  0.64964045     0.06800
H1840       H  0.50858581  0.07065231  0.62760381     0.07700
C1841       C  0.63477028  0.05748223  0.67694037    -0.22000
C1842       C  0.63506279  0.07326528  0.70073690     0.10000
C1843       C  0.61911212  0.06530880  0.72328867     0.10400
C1844       C  0.60197660  0.04258383  0.72095869    -0.16900
C1845       C  0.59998338  0.02806142  0.69640202    -0.27300
C1846       C  0.61726793  0.03501230  0.67440695     0.18700
C1847       C  0.64817984  0.10035055  0.70010920     0.12700
C1848       C  0.61874258  0.08188659  0.74914563    -0.11600
H1849       H  0.58841910  0.03745636  0.73757461     0.13000
C1850       C  0.61641302  0.02040979  0.64739711    -0.22500
H1851       H  0.64692256  0.06376655  0.65964655     0.08600
C1852       C  0.67457460  0.10515399  0.71020188     0.05000
C1853       C  0.68426446  0.13197734  0.71226256    -0.19700
C1854       C  0.66802002  0.15394070  0.70447224    -0.12000
C1855       C  0.64242458  0.14876192  0.69233058     0.13700
C1856       C  0.63275834  0.12205902  0.69059279    -0.22400
C1857       C  0.69214209  0.08207831  0.71928983    -0.05500
H1858       H  0.70396749  0.13588249  0.72132769     0.15200
C1859       C  0.62482395  0.17078523  0.68081348    -0.15700
H1860       H  0.61271570  0.11816186  0.68226314     0.09500
H1861       H  0.63689897  0.01242025  0.64257287     0.07400
H1862       H  0.61036341  0.03474290  0.63118203     0.08600
H1863       H  0.60194158  0.00312181  0.64714399     0.07600
H1864       H  0.61175096  0.10273800  0.74474264     0.02500
H1865       H  0.63943168  0.08290306  0.75801973     0.03000
H1866       H  0.60486963  0.07299964  0.76462644     0.06500
H1867       H  0.71225108  0.08934361  0.72664405     0.05500
H1868       H  0.69553062  0.06797115  0.70195759    -0.00300
H1869       H  0.68207559  0.07090089  0.73610671     0.01200
H1870       H  0.61988310  0.16590883  0.65927256     0.04900
H1871       H  0.63485493  0.19094660  0.68089073     0.06800
H1872       H  0.60561834  0.17203185  0.69263344     0.07700
C1873       C  0.66931960  0.79841655  0.66883524    -0.22000
C1874       C  0.64307714  0.80187927  0.67931685     0.10000
C1875       C  0.62778775  0.77895912  0.68734269     0.10400
C1876       C  0.63898798  0.75306068  0.68440039    -0.16900
C1877       C  0.66496336  0.74930069  0.67313788    -0.27300
C1878       C  0.68040668  0.77242374  0.66526498     0.18700
C1879       C  0.63064807  0.82919469  0.67928797     0.12700
C1880       C  0.59917429  0.78172332  0.69798911    -0.11600
H1881       H  0.62698972  0.73548530  0.69011276     0.13000
C1882       C  0.70769440  0.77078664  0.65135381    -0.22500
H1883       H  0.68075680  0.81605873  0.66226269     0.08600
C1884       C  0.62926850  0.84526959  0.70309603     0.05000
C1885       C  0.61236027  0.86812233  0.70351224    -0.19700
C1886       C  0.59700534  0.87516375  0.68058941    -0.12000
C1887       C  0.60029922  0.86041021  0.65609397     0.13700
C1888       C  0.61719112  0.83762325  0.65569454    -0.22400
C1889       C  0.64490421  0.83773079  0.72823417    -0.05500
H1890       H  0.60967221  0.87941798  0.72230924     0.15200
C1891       C  0.58499128  0.86803819  0.63074810    -0.15700
H1892       H  0.61862355  0.82536565  0.63736835     0.09500
H1893       H  0.72325513  0.78110626  0.66413004     0.07400
H1894       H  0.70667885  0.78120062  0.63138640     0.08600
H1895       H  0.71451308  0.74989541  0.64727276     0.07600
H1896       H  0.58624811  0.79145039  0.68238570     0.02500
H1897       H  0.59907527  0.79430797  0.71676015     0.03000
H1898       H  0.58998563  0.76173915  0.70299735     0.06500
H1899       H  0.64160451  0.85246788  0.74505888     0.05500
H1900       H  0.66695463  0.83738223  0.72345843    -0.00300
H1901       H  0.63848937  0.81740545  0.73545225     0.01200
H1902       H  0.59012564  0.88922584  0.62512546     0.04900
H1903       H  0.56277425  0.86632649  0.63429873     0.06800
H1904       H  0.59023612  0.85468596  0.61327180     0.07700
C1905       C  0.45547648  0.86834022  0.67018215    -0.22000
C1906       C  0.45107520  0.84809936  0.68960159     0.10000
C1907       C  0.46980813  0.84466209  0.71095502     0.10400
C1908       C  0.49301553  0.86131371  0.71208966    -0.16900
C1909       C  0.49785409  0.88118367  0.69225392    -0.27300
C1910       C  0.47874707  0.88486257  0.67110441     0.18700
C1911       C  0.42749684  0.82972712  0.68602274     0.12700
C1912       C  0.46545928  0.82316173  0.73219632    -0.11600
H1913       H  0.50785890  0.85835759  0.72806679     0.13000
C1914       C  0.48350889  0.90503178  0.64858785    -0.22500
H1915       H  0.44099229  0.87061943  0.65376055     0.08600
C1916       C  0.40128658  0.83720598  0.69445892     0.05000
C1917       C  0.37929997  0.81991259  0.68874930    -0.19700
C1918       C  0.38273061  0.79535579  0.67436016    -0.12000
C1919       C  0.40942001  0.78772095  0.66642639     0.13700
C1920       C  0.43137559  0.80504741  0.67249076    -0.22400
C1921       C  0.39653490  0.86359070  0.70920632    -0.05500
H1922       H  0.35915912  0.82601916  0.69517956     0.15200
C1923       C  0.41518547  0.76199066  0.65084664    -0.15700
H1924       H  0.45174001  0.79966710  0.66605388     0.09500
H1925       H  0.46726289  0.90398368  0.63294290     0.07400
H1926       H  0.50317927  0.90084928  0.63834286     0.08600
H1927       H  0.48375009  0.92592583  0.65696586     0.07600
H1928       H  0.46490515  0.80286388  0.72237525     0.02500
H1929       H  0.44591221  0.82667956  0.74291614     0.03000
H1930       H  0.48197563  0.82328594  0.74757531     0.06500
H1931       H  0.37478642  0.86629497  0.71456968     0.05500
H1932       H  0.40285870  0.88079388  0.69610855    -0.00300
H1933       H  0.40854561  0.86412205  0.72831542     0.01200
H1934       H  0.40405578  0.76198502  0.63120069     0.04900
H1935       H  0.40905047  0.74415619  0.66315064     0.06800
H1936       H  0.43714338  0.75986096  0.64608900     0.07700
loop_ 
_geom_bond_atom_site_label_1 
_geom_bond_atom_site_label_2 
_geom_bond_distance 
_geom_bond_site_symmetry_2 
_ccdc_geom_bond_type 
C1            C2   1.397       .  A
C1            C6   1.409       .  A
C1         C1886   1.480       .  S
C2            C3   1.392       .  A
C2            H7   1.086       .  S
C3            C4   1.398       .  A
C3         C1909   1.480       .  S
C4            C5   1.414       .  A
C4            H8   1.083       .  S
C5            C6   1.420       .  A
C5           C12   1.507       .  S
C6            H9   1.081       .  S
C10          C11   1.406   1_545  A
C10          C15   1.398       .  A
C10        C1845   1.478       .  S
C11          C12   1.415       .  A
C11          H16   1.082       .  S
C12          C13   1.418       .  A
C13          C14   1.402   1_565  A
C13          H17   1.083       .  S
C14          C15   1.394       .  A
C14        C1822   1.488       .  S
C15          H18   1.085       .  S
C19          C20   1.410       .  A
C19          C24   1.398       .  A
C19        C1749   1.481       .  S
C20          C21   1.421       .  A
C20          H25   1.080       .  S
C21          C22   1.414       .  A
C21          C30   1.509   1_655  S
C22          C23   1.398       .  A
C22          H26   1.080       .  S
C23          C24   1.393       .  A
C23        C1781   1.483       .  S
C24          H27   1.085       .  S
C28          C29   1.407       .  A
C28          C33   1.398       .  A
C28        C1717   1.476       .  S
C29          C30   1.416       .  A
C29          H34   1.080       .  S
C30          C31   1.419       .  A
C31          C32   1.400       .  A
C31          H35   1.079       .  S
C32          C33   1.393       .  A
C32        C1685   1.483       .  S
C33          H36   1.085       .  S
C37          C38   1.410       .  A
C37          C42   1.396       .  A
C37        C1653   1.480       .  S
C38          C39   1.420       .  A
C38          H43   1.081       .  S
C39          C40   1.417       .  A
C39          C50   1.510       .  S
C40          C41   1.400       .  A
C40          H44   1.081       .  S
C41          C42   1.393       .  A
C41        C1630   1.484       .  S
C42          H45   1.085       .  S
C46          C47   1.399       .  A
C46          C51   1.408       .  A
C46        C1566   1.480       .  S
C47          C48   1.394       .  A
C47          H52   1.085       .  S
C48          C49   1.401       .  A
C48        C1589   1.487       .  S
C49          C50   1.418       .  A
C49          H53   1.081       .  S
C50          C51   1.417       .  A
C51          H54   1.081       .  S
C55          C56   1.407       .  A
C55          C60   1.397       .  A
C55        C1502   1.479       .  S
C56          C57   1.418       .  A
C56          H61   1.084       .  S
C57          C58   1.416       .  A
C57          C66   1.507       .  S
C58          C59   1.400       .  A
C58          H62   1.082       .  S
C59          C60   1.394       .  A
C59        C1525   1.484       .  S
C60          H63   1.086       .  S
C64          C65   1.406   1_554  A
C64          C69   1.396       .  A
C64        C1470   1.475       .  S
C65          C66   1.417       .  A
C65          H70   1.083       .  S
C66          C67   1.417       .  A
C67          C68   1.401       .  A
C67          H71   1.081       .  S
C68          C69   1.393   1_556  A
C68        C1429   1.481   1_556  S
C69          H72   1.085       .  S
O73          C89   1.276       .  A
O73         Zn79   2.028       .  S
C74        C1534   1.492       .  S
C74          O90   1.277       .  A
C74          O87   1.272       .  A
O75          C88   1.276       .  A
O75         Cd82   2.081       .  S
O76          C94   1.273       .  A
O76         Cd85   2.054       .  S
O77          C91   1.275       .  A
O77         Cd81   2.067       .  S
O78          C89   1.274       .  A
O78         Cd81   2.072       .  S
Zn79         O90   2.041       .  S
Zn79         O92   2.018       .  S
Zn79         O84   1.943       .  S
O80          C91   1.274       .  A
O80         Cd85   2.074       .  S
Cd81         O83   2.063       .  S
Cd81         O84   1.992       .  S
Cd82         O86   2.087       .  S
Cd82         O95   2.090       .  S
Cd82         O84   2.012       .  S
O83          C93   1.275       .  A
O84         Cd85   1.986       .  S
Cd85         O87   2.058       .  S
O86          C93   1.277       .  A
C88        C1365   1.497       .  S
C88          O92   1.277       .  A
C89        C1342   1.499       .  S
C91        C1310   1.491       .  S
C93        C1854   1.479       .  S
C94        C1397   1.485       .  S
C94          O95   1.277       .  A
O96         C112   1.274       .  A
O96        Zn102   2.019       .  S
C97        C1598   1.489       .  S
C97         O113   1.274       .  A
C97         O110   1.275       .  A
O98         C111   1.277       .  A
O98        Cd105   2.087       .  S
O99         C117   1.274       .  A
O99        Cd108   2.058       .  S
O100        C114   1.274       .  A
O100       Cd104   2.057       .  S
O101        C112   1.273       .  A
O101       Cd104   2.068       .  S
Zn102       O113   2.020       .  S
Zn102       O115   2.006       .  S
Zn102       O107   1.932       .  S
O103        C114   1.274       .  A
O103       Cd108   2.076       .  S
Cd104       O106   2.058       .  S
Cd104       O107   1.987       .  S
Cd105       O109   2.094       .  S
Cd105       O118   2.103       .  S
Cd105       O107   2.009       .  S
O106        C116   1.276       .  A
O107       Cd108   1.987       .  S
Cd108       O110   2.069       .  S
O109        C116   1.278       .  A
C111       C1726   1.479       .  S
C111        O115   1.275       .  A
C112       C1214   1.486       .  S
C114       C1918   1.493       .  S
C116       C1269   1.494       .  S
C117       C1246   1.490       .  S
C117        O118   1.280       .  A
C119        C120   1.397       .  A
C119        C124   1.405       .  A
C119       C1150   1.476       .  S
C120        C121   1.392       .  A
C120        H125   1.085       .  S
C121        C122   1.400       .  A
C121       C1173   1.480       .  S
C122        C123   1.418       .  A
C122        H126   1.079       .  S
C123        C124   1.418       .  A
C123        C132   1.508       .  S
C124        H127   1.079       .  S
C128        C129   1.397       .  A
C128        C133   1.407       .  A
C128       C1077   1.479       .  S
C129        C130   1.394       .  A
C129        H134   1.084       .  S
C130        C131   1.400       .  A
C130       C1109   1.479       .  S
C131        C132   1.415       .  A
C131        H135   1.079       .  S
C132        C133   1.419       .  A
C133        H136   1.080       .  S
O137        C153   1.274       .  A
O137       Zn143   2.012       .  S
C138       C1022   1.475       .  S
C138        O154   1.275       .  A
C138        O151   1.272       .  A
O139        C152   1.278       .  A
O139       Cd146   2.089       .  S
O140        C158   1.275       .  A
O140       Cd149   2.057       .  S
O141        C155   1.275       .  A
O141       Cd145   2.065       .  S
O142        C153   1.273       .  A
O142       Cd145   2.075       .  S
Zn143       O154   2.026       .  S
Zn143       O156   2.006       .  S
Zn143       O148   1.936       .  S
O144        C155   1.274       .  A
O144       Cd149   2.067       .  S
Cd145       O147   2.055       .  S
Cd145       O148   1.989       .  S
Cd146       O150   2.101       .  S
Cd146       O159   2.103       .  S
Cd146       O148   2.008       .  S
O147        C157   1.275       .  A
O148       Cd149   1.983       .  S
Cd149       O151   2.051       .  S
O150        C157   1.280       .  A
C152       C1461   1.484       .  S
C152        O156   1.276       .  A
C153       C1182   1.497       .  S
C155       C1790   1.485       .  S
C157       C1045   1.484       .  S
C158       C1662   1.488       .  S
C158        O159   1.279       .  A
C160        C161   1.405       .  A
C160        C165   1.395       .  A
C160       C1406   1.477       .  S
C161        C162   1.422       .  A
C161        H166   1.077       .  S
C162        C163   1.418       .  A
C162        C173   1.516   1_655  S
C163        C164   1.401       .  A
C163        H167   1.075       .  S
C164        C165   1.392       .  A
C164        C981   1.482       .  S
C165        H168   1.085       .  S
C169        C170   1.394       .  A
C169        C174   1.404       .  A
C169        C949   1.474       .  S
C170        C171   1.391       .  A
C170        H175   1.085       .  S
C171        C172   1.401       .  A
C171        C926   1.481       .  S
C172        C173   1.422       .  A
C172        H176   1.075       .  S
C173        C174   1.420       .  A
C174        H177   1.077       .  S
O178        C194   1.273       .  A
O178       Zn184   2.018       .  S
C179        C990   1.485       .  S
C179        O195   1.276       .  A
C179        O192   1.270       .  A
O180        C193   1.276       .  A
O180       Cd187   2.073       .  S
O181        C199   1.276       .  A
O181       Cd190   2.062       .  S
O182        C196   1.273       .  A
O182       Cd186   2.060       .  S
O183        C194   1.274       .  A
O183       Cd186   2.066       .  S
Zn184       O195   2.032       .  S
Zn184       O197   2.013       .  S
Zn184       O189   1.935       .  S
O185        C196   1.275       .  A
O185       Cd190   2.071       .  S
Cd186       O188   2.052       .  S
Cd186       O189   1.980       .  S
Cd187       O191   2.090       .  S
Cd187       O200   2.084       .  S
Cd187       O189   1.998       .  S
O188        C198   1.273       .  A
O189       Cd190   1.983       .  S
Cd190       O192   2.048       .  S
O191        C198   1.278       .  A
C193        C830   1.477       .  S
C193        O197   1.276       .  A
C194       C1438   1.491       .  S
C196       C1118   1.477       .  S
C198        C894   1.491       .  S
C199        C853   1.491       .  S
C199        O200   1.276       .  A
C201        C202   1.410       .  A
C201        C206   1.397   1_554  A
C201        C757   1.482       .  S
C202        C203   1.421   1_554  A
C202        H207   1.081       .  S
C203        C204   1.415       .  A
C203        C214   1.511       .  S
C204        C205   1.398       .  A
C204        H208   1.083       .  S
C205        C206   1.394       .  A
C205        C789   1.481       .  S
C206        H209   1.086       .  S
C210        C211   1.398       .  A
C210        C215   1.406       .  A
C210        C821   1.475       .  S
C211        C212   1.392   1_554  A
C211        H216   1.085       .  S
C212        C213   1.401       .  A
C212       C1301   1.486       .  S
C213        C214   1.420       .  A
C213        H217   1.082       .  S
C214        C215   1.416   1_556  A
C215        H218   1.081       .  S
C219        C220   1.395       .  A
C219        C224   1.407       .  A
C219       C1278   1.474       .  S
C220        C221   1.390       .  A
C220        H225   1.086       .  S
C221        C222   1.398       .  A
C221        C734   1.474       .  S
C222        C223   1.416       .  A
C222        H226   1.081       .  S
C223        C224   1.418       .  A
C223        C232   1.505       .  S
C224        H227   1.082       .  S
C228        C229   1.398   1_556  A
C228        C233   1.408       .  A
C228        C661   1.480   1_556  S
C229        C230   1.394   1_554  A
C229        H234   1.085       .  S
C230        C231   1.399       .  A
C230        C693   1.480   1_556  S
C231        C232   1.415       .  A
C231        H235   1.081       .  S
C232        C233   1.418       .  A
C233        H236   1.082       .  S
O237        C253   1.272       .  A
O237       Zn243   2.018       .  S
C238        C725   1.480       .  S
C238        O254   1.274       .  A
C238        O251   1.274       .  A
O239        C252   1.278       .  A
O239       Cd246   2.093       .  S
O240        C258   1.272       .  A
O240       Cd249   2.053       .  S
O241        C255   1.273       .  A
O241       Cd245   2.065       .  S
O242        C253   1.274       .  A
O242       Cd245   2.068       .  S
Zn243       O254   2.018       .  S
Zn243       O256   1.989       .  S
Zn243       O248   1.930       .  S
O244        C255   1.276       .  A
O244       Cd249   2.074       .  S
Cd245       O247   2.044       .  S
Cd245       O248   1.984       .  S
Cd246       O250   2.099       .  S
Cd246       O259   2.096       .  S
Cd246       O248   2.018       .  S
O247        C257   1.275       .  A
O248       Cd249   1.988       .  S
Cd249       O251   2.062       .  S
O250        C257   1.278       .  A
C252        C638   1.489       .  S
C252        O256   1.271       .  A
C253       C1813   1.486       .  S
C255        C798   1.485       .  S
C257        C597   1.498       .  S
C258        C958   1.489       .  S
C258        O259   1.279       .  A
C260        C261   1.402       .  A
C260        C265   1.411       .  A
C260        C574   1.486       .  S
C261        C262   1.393   1_545  A
C261        H266   1.084       .  S
C262        C263   1.395       .  A
C262        C542   1.476       .  S
C263        C264   1.411   1_565  A
C263        H267   1.082       .  S
C264        C265   1.418       .  A
C264        C271   1.501       .  S
C265        H268   1.082       .  S
C269        C270   1.407       .  A
C269        C274   1.399       .  A
C269        C629   1.476       .  S
C270        C271   1.414       .  A
C270        H275   1.082       .  S
C271        C272   1.416   1_545  A
C272        C273   1.398       .  A
C272        H276   1.082       .  S
C273        C274   1.394   1_565  A
C273       C1205   1.480       .  S
C274        H277   1.084       .  S
O278        C294   1.274       .  A
O278       Zn284   2.016       .  S
C279        C917   1.483       .  S
C279        O295   1.275       .  A
C279        O292   1.273       .  A
O280        C293   1.280       .  A
O280       Cd287   2.103       .  S
O281        C299   1.274       .  A
O281       Cd290   2.050       .  S
O282        C296   1.274       .  A
O282       Cd286   2.068       .  S
O283        C294   1.274       .  A
O283       Cd286   2.072       .  S
Zn284       O295   2.032       .  S
Zn284       O297   2.014       .  S
Zn284       O289   1.938       .  S
O285        C296   1.273       .  A
O285       Cd290   2.066       .  S
Cd286       O288   2.056       .  S
Cd286       O289   1.993       .  S
Cd287       O291   2.108       .  S
Cd287       O300   2.107       .  S
Cd287       O289   2.015       .  S
O288        C298   1.274       .  A
O289       Cd290   1.986       .  S
Cd290       O292   2.060       .  S
O291        C298   1.280       .  A
C293        C766   1.495       .  S
C293        O297   1.276       .  A
C294        C702   1.479       .  S
C296        C501   1.487       .  S
C298        C565   1.492       .  S
C299       C1086   1.487       .  S
C299        O300   1.280       .  A
C301        C302   1.398       .  A
C301        C306   1.408       .  A
C301       C1054   1.480       .  S
C302        C303   1.393       .  A
C302        H307   1.084       .  S
C303        C304   1.397       .  A
C303        C469   1.480       .  S
C304        C305   1.416       .  A
C304        H308   1.080       .  S
C305        C306   1.418       .  A
C305        C312   1.506       .  S
C306        H309   1.081       .  S
C310        C311   1.405   1_545  A
C310        C315   1.397       .  A
C310        C862   1.474       .  S
C311        C312   1.416       .  A
C311        H316   1.080       .  S
C312        C313   1.416       .  A
C313        C314   1.399   1_565  A
C313        H317   1.079       .  S
C314        C315   1.393       .  A
C314        C510   1.482       .  S
C315        H318   1.086       .  S
O319        C335   1.272       .  A
O319       Zn325   2.000       .  S
C320        C533   1.477       .  S
C320        O336   1.274       .  A
C320        O333   1.273       .  A
O321        C334   1.278       .  A
O321       Cd328   2.095       .  S
O322        C340   1.276       .  A
O322       Cd331   2.060       .  S
O323        C337   1.275       .  A
O323       Cd327   2.070       .  S
O324        C335   1.273       .  A
O324       Cd327   2.074       .  S
Zn325       O336   2.013       .  S
Zn325       O338   2.003       .  S
Zn325       O330   1.930       .  S
O326        C337   1.274       .  A
O326       Cd331   2.074       .  S
Cd327       O329   2.055       .  S
Cd327       O330   1.990       .  S
Cd328       O332   2.094       .  S
Cd328       O341   2.096       .  S
Cd328       O330   2.011       .  S
O329        C339   1.274       .  A
O330       Cd331   1.988       .  S
Cd331       O333   2.066       .  S
O332        C339   1.279       .  A
C334        C670   1.497       .  S
C334        O338   1.272       .  A
C335        C478   1.491       .  S
C337       C1694   1.498       .  S
C339       C1141   1.487       .  S
C340       C1557   1.482       .  S
C340        O341   1.279       .  A
C342        C343   1.405       .  A
C342        C347   1.398       .  A
C342        C606   1.478       .  S
C343        C344   1.416       .  A
C343        H348   1.081       .  S
C344        C345   1.418       .  A
C344        C353   1.507       .  S
C345        C346   1.404       .  A
C345        H349   1.082       .  S
C346        C347   1.396       .  A
C346       C1333   1.485       .  S
C347        H350   1.085       .  S
C351        C352   1.406       .  A
C351        C356   1.397       .  A
C351       C1237   1.483       .  S
C352        C353   1.420       .  A
C352        H357   1.082       .  S
C353        C354   1.417       .  A
C354        C355   1.403       .  A
C354        H358   1.081       .  S
C355        C356   1.392       .  A
C355        C437   1.484       .  S
C356        H359   1.086       .  S
C360        C361   1.405       .  A
C360        C365   1.398       .  A
C360        C885   1.478       .  S
C361        C362   1.417       .  A
C361        H366   1.083       .  S
C362        C363   1.414       .  A
C362        C371   1.503       .  S
C363        C364   1.398       .  A
C363        H367   1.082       .  S
C364        C365   1.391       .  A
C364       C1013   1.475       .  S
C365        H368   1.085       .  S
C369        C370   1.404       .  A
C369        C374   1.398       .  A
C369       C1374   1.474       .  S
C370        C371   1.415       .  A
C370        H375   1.082       .  S
C371        C372   1.416       .  A
C372        C373   1.399       .  A
C372        H376   1.083       .  S
C373        C374   1.393       .  A
C373        C405   1.477       .  S
C374        H377   1.085       .  S
O378        C394   1.272       .  A
O378       Zn384   2.006       .  S
C379        C446   1.493       .  S
C379        O395   1.275       .  A
C379        O392   1.272       .  A
O380        C393   1.279       .  A
O380       Cd387   2.098       .  S
O381        C399   1.274       .  A
O381       Cd390   2.059       .  S
O382        C396   1.274       .  A
O382       Cd386   2.067       .  S
O383        C394   1.276       .  A
O383       Cd386   2.079       .  S
Zn384       O395   2.036       .  S
Zn384       O397   2.009       .  S
Zn384       O389   1.937       .  S
O385        C396   1.276       .  A
O385       Cd390   2.076       .  S
Cd386       O388   2.072       .  S
Cd386       O389   1.996       .  S
Cd387       O391   2.103       .  S
Cd387       O400   2.107       .  S
Cd387       O389   2.011       .  S
O388        C398   1.277       .  A
O389       Cd390   1.988       .  S
Cd390       O392   2.056       .  S
O391        C398   1.280       .  A
C393       C1877   1.485       .  S
C393        O397   1.275       .  A
C394       C1621   1.487       .  S
C396        C414   1.483       .  S
C398       C1758   1.489       .  S
C399       C1493   1.497       .  S
C399        O400   1.281       .  A
C401        C402   1.402       .  A
C401        C406   1.403       .  A
C401        H411   1.084       .  S
C402        C403   1.413       .  A
C402        C407   1.483       .  S
C403        C404   1.404       .  A
C403        C408   1.506       .  S
C404        C405   1.402       .  A
C404        H409   1.084       .  S
C405        C406   1.415       .  A
C406        C410   1.508       .  S
C407        C412   1.412       .  A
C407        C416   1.399       .  A
C408        H424   1.110       .  S
C408        H425   1.110       .  S
C408        H426   1.111       .  S
C410        H421   1.111       .  S
C410        H422   1.110       .  S
C410        H423   1.108       .  S
C412        C413   1.405       .  A
C412        C417   1.506       .  S
C413        C414   1.405       .  A
C413        H418   1.084       .  S
C414        C415   1.421       .  A
C415        C416   1.403       .  A
C415        C419   1.511       .  S
C416        H420   1.085       .  S
C417        H427   1.111       .  S
C417        H428   1.110       .  S
C417        H429   1.111       .  S
C419        H430   1.110       .  S
C419        H431   1.106       .  S
C419        H432   1.111       .  S
C433        C434   1.402       .  A
C433        C438   1.404       .  A
C433        H443   1.085       .  S
C434        C435   1.409       .  A
C434        C439   1.481       .  S
C435        C436   1.402       .  A
C435        C440   1.507       .  S
C436        C437   1.407       .  A
C436        H441   1.085       .  S
C437        C438   1.416       .  A
C438        C442   1.507       .  S
C439        C444   1.408       .  A
C439        C448   1.401       .  A
C440        H456   1.110       .  S
C440        H457   1.109       .  S
C440        H458   1.111       .  S
C442        H453   1.110       .  S
C442        H454   1.111       .  S
C442        H455   1.107       .  S
C444        C445   1.402       .  A
C444        C449   1.508       .  S
C445        C446   1.410       .  A
C445        H450   1.085       .  S
C446        C447   1.422       .  A
C447        C448   1.407       .  A
C447        C451   1.508       .  S
C448        H452   1.085       .  S
C449        H459   1.111       .  S
C449        H460   1.110       .  S
C449        H461   1.109       .  S
C451        H462   1.111       .  S
C451        H463   1.110       .  S
C451        H464   1.111       .  S
C465        C466   1.401       .  A
C465        C470   1.403       .  A
C465        H475   1.085       .  S
C466        C467   1.410       .  A
C466        C471   1.479       .  S
C467        C468   1.403   1_455  A
C467        C472   1.506       .  S
C468        C469   1.404       .  A
C468        H473   1.085       .  S
C469        C470   1.415   1_655  A
C470        C474   1.508       .  S
C471        C476   1.406       .  A
C471        C480   1.400       .  A
C472        H488   1.110       .  S
C472        H489   1.110       .  S
C472        H490   1.111       .  S
C474        H485   1.109       .  S
C474        H486   1.111       .  S
C474        H487   1.110   1_455  S
C476        C477   1.401       .  A
C476        C481   1.507       .  S
C477        C478   1.411       .  A
C477        H482   1.083       .  S
C478        C479   1.421       .  A
C479        C480   1.405       .  A
C479        C483   1.508       .  S
C480        H484   1.084       .  S
C481        H491   1.111       .  S
C481        H492   1.110       .  S
C481        H493   1.110       .  S
C483        H494   1.111       .  S
C483        H495   1.110       .  S
C483        H496   1.110       .  S
C497        C498   1.399       .  A
C497        C502   1.404       .  A
C497        H507   1.085       .  S
C498        C499   1.408       .  A
C498        C503   1.479       .  S
C499        C500   1.403       .  A
C499        C504   1.506       .  S
C500        C501   1.408       .  A
C500        H505   1.085       .  S
C501        C502   1.421       .  A
C502        C506   1.509       .  S
C503        C508   1.410       .  A
C503        C512   1.400       .  A
C504        H520   1.110       .  S
C504        H521   1.110       .  S
C504        H522   1.111       .  S
C506        H517   1.111       .  S
C506        H518   1.111       .  S
C506        H519   1.110       .  S
C508        C509   1.405   1_455  A
C508        C513   1.505       .  S
C509        C510   1.405       .  A
C509        H514   1.083       .  S
C510        C511   1.416   1_655  A
C511        C512   1.402       .  A
C511        C515   1.509   1_545  S
C512        H516   1.084       .  S
C513        H523   1.111   1_455  S
C513        H524   1.110       .  S
C513        H525   1.110       .  S
C515        H526   1.110   1_455  S
C515        H527   1.108       .  S
C515        H528   1.111       .  S
C529        C530   1.399       .  A
C529        C534   1.403       .  A
C529        H539   1.084       .  S
C530        C531   1.410       .  A
C530        C535   1.478       .  S
C531        C532   1.402       .  A
C531        C536   1.507       .  S
C532        C533   1.404       .  A
C532        H537   1.084       .  S
C533        C534   1.420       .  A
C534        C538   1.509       .  S
C535        C540   1.410       .  A
C535        C544   1.400       .  A
C536        H552   1.110       .  S
C536        H553   1.110       .  S
C536        H554   1.111       .  S
C538        H549   1.111       .  S
C538        H550   1.110       .  S
C538        H551   1.106       .  S
C540        C541   1.402       .  A
C540        C545   1.506       .  S
C541        C542   1.402       .  A
C541        H546   1.085       .  S
C542        C543   1.416       .  A
C543        C544   1.401       .  A
C543        C547   1.508       .  S
C544        H548   1.086       .  S
C545        H555   1.111       .  S
C545        H556   1.110       .  S
C545        H557   1.110       .  S
C547        H558   1.110       .  S
C547        H559   1.107       .  S
C547        H560   1.111       .  S
C561        C562   1.400       .  A
C561        C566   1.402       .  A
C561        H571   1.084       .  S
C562        C563   1.413       .  A
C562        C567   1.489       .  S
C563        C564   1.411       .  A
C563        C568   1.505       .  S
C564        C565   1.408       .  A
C564        H569   1.083       .  S
C565        C566   1.422       .  A
C566        C570   1.511       .  S
C567        C572   1.415       .  A
C567        C576   1.402       .  A
C568        H584   1.109       .  S
C568        H585   1.110       .  S
C568        H586   1.111       .  S
C570        H581   1.111       .  S
C570        H582   1.109       .  S
C570        H583   1.111       .  S
C572        C573   1.408       .  A
C572        C577   1.506       .  S
C573        C574   1.404       .  A
C573        H578   1.084       .  S
C574        C575   1.416       .  A
C575        C576   1.402       .  A
C575        C579   1.507       .  S
C576        H580   1.084       .  S
C577        H587   1.111       .  S
C577        H588   1.109       .  S
C577        H589   1.110       .  S
C579        H590   1.110       .  S
C579        H591   1.109       .  S
C579        H592   1.110       .  S
C593        C594   1.402       .  A
C593        C598   1.412       .  A
C593        H603   1.085       .  S
C594        C595   1.408       .  A
C594        C599   1.481       .  S
C595        C596   1.395       .  A
C595        C600   1.511       .  S
C596        C597   1.410       .  A
C596        H601   1.085       .  S
C597        C598   1.424       .  A
C598        C602   1.507       .  S
C599        C604   1.410       .  A
C599        C608   1.402       .  A
C600        H616   1.110       .  S
C600        H617   1.109       .  S
C600        H618   1.111       .  S
C602        H613   1.111       .  S
C602        H614   1.110       .  S
C602        H615   1.110       .  S
C604        C605   1.405       .  A
C604        C609   1.506       .  S
C605        C606   1.404       .  A
C605        H610   1.084       .  S
C606        C607   1.415       .  A
C607        C608   1.403       .  A
C607        C611   1.507       .  S
C608        H612   1.085       .  S
C609        H619   1.111       .  S
C609        H620   1.110       .  S
C609        H621   1.110       .  S
C611        H622   1.110       .  S
C611        H623   1.108       .  S
C611        H624   1.110       .  S
C625        C626   1.402       .  A
C625        C630   1.405       .  A
C625        H635   1.084       .  S
C626        C627   1.412       .  A
C626        C631   1.479       .  S
C627        C628   1.402       .  A
C627        C632   1.508       .  S
C628        C629   1.402       .  A
C628        H633   1.084       .  S
C629        C630   1.415       .  A
C630        C634   1.506       .  S
C631        C636   1.408       .  A
C631        C640   1.398       .  A
C632        H648   1.110       .  S
C632        H649   1.109       .  S
C632        H650   1.111       .  S
C634        H645   1.108       .  S
C634        H646   1.111       .  S
C634        H647   1.110       .  S
C636        C637   1.407       .  A
C636        C641   1.505       .  S
C637        C638   1.409       .  A
C637        H642   1.084       .  S
C638        C639   1.423       .  A
C639        C640   1.401       .  A
C639        C643   1.511       .  S
C640        H644   1.085       .  S
C641        H651   1.111       .  S
C641        H652   1.110       .  S
C641        H653   1.109       .  S
C643        H654   1.110       .  S
C643        H655   1.109       .  S
C643        H656   1.111       .  S
C657        C658   1.401       .  A
C657        C662   1.403       .  A
C657        H667   1.084       .  S
C658        C659   1.413       .  A
C658        C663   1.484       .  S
C659        C660   1.405       .  A
C659        C664   1.506       .  S
C660        C661   1.403       .  A
C660        H665   1.084       .  S
C661        C662   1.415       .  A
C662        C666   1.506       .  S
C663        C668   1.408       .  A
C663        C672   1.397       .  A
C664        H680   1.110       .  S
C664        H681   1.110       .  S
C664        H682   1.111       .  S
C666        H677   1.110       .  S
C666        H678   1.110       .  S
C666        H679   1.109       .  S
C668        C669   1.409       .  A
C668        C673   1.505       .  S
C669        C670   1.411       .  A
C669        H674   1.084       .  S
C670        C671   1.426       .  A
C671        C672   1.401       .  A
C671        C675   1.511       .  S
C672        H676   1.085       .  S
C673        H683   1.111       .  S
C673        H684   1.110       .  S
C673        H685   1.110       .  S
C675        H686   1.110       .  S
C675        H687   1.111       .  S
C675        H688   1.111       .  S
C689        C690   1.401       .  A
C689        C694   1.403       .  A
C689        H699   1.085       .  S
C690        C691   1.410       .  A
C690        C695   1.479   1_565  S
C691        C692   1.403       .  A
C691        C696   1.506   1_565  S
C692        C693   1.404       .  A
C692        H697   1.084   1_554  S
C693        C694   1.416       .  A
C694        C698   1.507       .  S
C695        C700   1.408       .  A
C695        C704   1.401       .  A
C696        H712   1.110       .  S
C696        H713   1.110       .  S
C696        H714   1.111       .  S
C698        H709   1.111       .  S
C698        H710   1.110       .  S
C698        H711   1.108       .  S
C700        C701   1.402       .  A
C700        C705   1.507       .  S
C701        C702   1.406       .  A
C701        H706   1.084       .  S
C702        C703   1.417       .  A
C703        C704   1.404       .  A
C703        C707   1.508       .  S
C704        H708   1.084       .  S
C705        H715   1.111       .  S
C705        H716   1.110       .  S
C705        H717   1.110       .  S
C707        H718   1.110       .  S
C707        H719   1.106       .  S
C707        H720   1.111       .  S
C721        C722   1.401       .  A
C721        C726   1.404       .  A
C721        H731   1.085   1_545  S
C722        C723   1.408       .  A
C722        C727   1.478   1_545  S
C723        C724   1.400       .  A
C723        C728   1.507       .  S
C724        C725   1.405       .  A
C724        H729   1.084       .  S
C725        C726   1.419       .  A
C726        C730   1.509       .  S
C727        C732   1.410       .  A
C727        C736   1.401       .  A
C728        H744   1.110       .  S
C728        H745   1.110       .  S
C728        H746   1.111       .  S
C730        H741   1.111       .  S
C730        H742   1.110       .  S
C730        H743   1.106       .  S
C732        C733   1.402       .  A
C732        C737   1.506   1_565  S
C733        C734   1.403       .  A
C733        H738   1.084       .  S
C734        C735   1.414       .  A
C735        C736   1.401       .  A
C735        C739   1.508       .  S
C736        H740   1.084       .  S
C737        H747   1.111   1_545  S
C737        H748   1.110       .  S
C737        H749   1.110       .  S
C739        H750   1.110       .  S
C739        H751   1.108       .  S
C739        H752   1.110       .  S
C753        C754   1.403       .  A
C753        C758   1.406       .  A
C753        H763   1.083       .  S
C754        C755   1.412       .  A
C754        C759   1.487       .  S
C755        C756   1.407       .  A
C755        C760   1.506       .  S
C756        C757   1.404       .  A
C756        H761   1.084       .  S
C757        C758   1.412       .  A
C758        C762   1.506       .  S
C759        C764   1.410       .  A
C759        C768   1.402       .  A
C760        H776   1.110       .  S
C760        H777   1.110       .  S
C760        H778   1.111       .  S
C762        H773   1.110       .  S
C762        H774   1.111       .  S
C762        H775   1.110       .  S
C764        C765   1.403       .  A
C764        C769   1.508       .  S
C765        C766   1.408       .  A
C765        H770   1.084       .  S
C766        C767   1.421       .  A
C767        C768   1.411       .  A
C767        C771   1.506       .  S
C768        H772   1.084       .  S
C769        H779   1.111       .  S
C769        H780   1.110       .  S
C769        H781   1.110       .  S
C771        H782   1.110       .  S
C771        H783   1.110       .  S
C771        H784   1.111       .  S
C785        C786   1.401       .  A
C785        C790   1.403       .  A
C785        H795   1.085       .  S
C786        C787   1.409       .  A
C786        C791   1.478       .  S
C787        C788   1.401       .  A
C787        C792   1.507       .  S
C788        C789   1.405       .  A
C788        H793   1.085       .  S
C789        C790   1.416       .  A
C790        C794   1.507       .  S
C791        C796   1.409       .  A
C791        C800   1.398       .  A
C792        H808   1.110       .  S
C792        H809   1.110       .  S
C792        H810   1.111       .  S
C794        H805   1.110       .  S
C794        H806   1.111       .  S
C794        H807   1.108       .  S
C796        C797   1.402       .  A
C796        C801   1.507       .  S
C797        C798   1.407       .  A
C797        H802   1.084       .  S
C798        C799   1.422       .  A
C799        C800   1.404       .  A
C799        C803   1.509       .  S
C800        H804   1.084       .  S
C801        H811   1.111       .  S
C801        H812   1.110       .  S
C801        H813   1.110       .  S
C803        H814   1.111       .  S
C803        H815   1.106       .  S
C803        H816   1.110       .  S
C817        C818   1.401       .  A
C817        C822   1.403       .  A
C817        H827   1.085       .  S
C818        C819   1.412       .  A
C818        C823   1.478       .  S
C819        C820   1.401       .  A
C819        C824   1.508       .  S
C820        C821   1.402       .  A
C820        H825   1.085       .  S
C821        C822   1.414       .  A
C822        C826   1.507       .  S
C823        C828   1.409       .  A
C823        C832   1.401       .  A
C824        H840   1.110       .  S
C824        H841   1.108       .  S
C824        H842   1.111       .  S
C826        H837   1.110       .  S
C826        H838   1.111       .  S
C826        H839   1.108       .  S
C828        C829   1.405       .  A
C828        C833   1.506       .  S
C829        C830   1.407       .  A
C829        H834   1.084       .  S
C830        C831   1.415       .  A
C831        C832   1.399       .  A
C831        C835   1.508       .  S
C832        H836   1.085       .  S
C833        H843   1.111       .  S
C833        H844   1.110       .  S
C833        H845   1.108       .  S
C835        H846   1.111       .  S
C835        H847   1.107       .  S
C835        H848   1.110       .  S
C849        C850   1.399       .  A
C849        C854   1.409       .  A
C849        H859   1.085       .  S
C850        C851   1.410       .  A
C850        C855   1.480       .  S
C851        C852   1.399       .  A
C851        C856   1.509       .  S
C852        C853   1.407       .  A
C852        H857   1.084       .  S
C853        C854   1.423       .  A
C854        C858   1.507       .  S
C855        C860   1.410       .  A
C855        C864   1.402       .  A
C856        H872   1.110       .  S
C856        H873   1.109       .  S
C856        H874   1.111       .  S
C858        H869   1.111       .  S
C858        H870   1.111       .  S
C858        H871   1.110       .  S
C860        C861   1.403       .  A
C860        C865   1.506       .  S
C861        C862   1.403       .  A
C861        H866   1.085       .  S
C862        C863   1.413       .  A
C863        C864   1.403       .  A
C863        C867   1.506       .  S
C864        H868   1.085       .  S
C865        H875   1.111       .  S
C865        H876   1.110       .  S
C865        H877   1.110       .  S
C867        H878   1.110       .  S
C867        H879   1.109       .  S
C867        H880   1.110       .  S
C881        C882   1.401       .  A
C881        C886   1.401       .  A
C881        H891   1.085       .  S
C882        C883   1.412       .  A
C882        C887   1.481       .  S
C883        C884   1.405       .  A
C883        C888   1.506       .  S
C884        C885   1.403       .  A
C884        H889   1.084       .  S
C885        C886   1.414       .  A
C886        C890   1.507       .  S
C887        C892   1.408       .  A
C887        C896   1.398       .  A
C888        H904   1.110       .  S
C888        H905   1.110       .  S
C888        H906   1.111       .  S
C890        H901   1.110       .  S
C890        H902   1.110       .  S
C890        H903   1.109       .  S
C892        C893   1.408       .  A
C892        C897   1.505       .  S
C893        C894   1.410       .  A
C893        H898   1.084       .  S
C894        C895   1.423       .  A
C895        C896   1.399       .  A
C895        C899   1.511       .  S
C896        H900   1.085       .  S
C897        H907   1.111       .  S
C897        H908   1.110       .  S
C897        H909   1.110       .  S
C899        H910   1.110       .  S
C899        H911   1.110       .  S
C899        H912   1.111       .  S
C913        C914   1.402       .  A
C913        C918   1.407       .  A
C913        H923   1.084   1_554  S
C914        C915   1.409       .  A
C914        C919   1.480   1_554  S
C915        C916   1.402       .  A
C915        C920   1.507       .  S
C916        C917   1.406       .  A
C916        H921   1.084       .  S
C917        C918   1.416       .  A
C918        C922   1.507       .  S
C919        C924   1.411       .  A
C919        C928   1.400       .  A
C920        H936   1.110       .  S
C920        H937   1.110       .  S
C920        H938   1.111       .  S
C922        H933   1.111       .  S
C922        H934   1.109       .  S
C922        H935   1.111       .  S
C924        C925   1.405       .  A
C924        C929   1.506   1_556  S
C925        C926   1.404       .  A
C925        H930   1.085       .  S
C926        C927   1.417       .  A
C927        C928   1.401       .  A
C927        C931   1.508       .  S
C928        H932   1.085       .  S
C929        H939   1.111   1_554  S
C929        H940   1.110       .  S
C929        H941   1.110       .  S
C931        H942   1.110       .  S
C931        H943   1.107       .  S
C931        H944   1.110       .  S
C945        C946   1.403       .  A
C945        C950   1.405       .  A
C945        H955   1.085       .  S
C946        C947   1.412       .  A
C946        C951   1.479       .  S
C947        C948   1.400       .  A
C947        C952   1.508       .  S
C948        C949   1.402       .  A
C948        H953   1.085       .  S
C949        C950   1.413       .  A
C950        C954   1.506       .  S
C951        C956   1.408       .  A
C951        C960   1.398       .  A
C952        H968   1.110       .  S
C952        H969   1.108       .  S
C952        H970   1.111       .  S
C954        H965   1.110       .  S
C954        H966   1.110       .  S
C954        H967   1.109       .  S
C956        C957   1.407       .  A
C956        C961   1.506       .  S
C957        C958   1.409       .  A
C957        H962   1.084       .  S
C958        C959   1.422       .  A
C959        C960   1.401       .  A
C959        C963   1.510       .  S
C960        H964   1.085       .  S
C961        H971   1.111       .  S
C961        H972   1.110       .  S
C961        H973   1.109       .  S
C963        H974   1.110       .  S
C963        H975   1.109       .  S
C963        H976   1.111       .  S
C977        C978   1.399       .  A
C977        C982   1.402       .  A
C977        H987   1.085       .  S
C978        C979   1.410       .  A
C978        C983   1.477   1_556  S
C979        C980   1.402       .  A
C979        C984   1.507       .  S
C980        C981   1.404       .  A
C980        H985   1.084       .  S
C981        C982   1.419       .  A
C982        C986   1.509       .  S
C983        C988   1.409       .  A
C983        C992   1.398       .  A
C984       H1000   1.110   1_556  S
C984       H1001   1.109       .  S
C984       H1002   1.111       .  S
C986        H997   1.110       .  S
C986        H998   1.111       .  S
C986        H999   1.107       .  S
C988        C989   1.403       .  A
C988        C993   1.507   1_554  S
C989        C990   1.407       .  A
C989        H994   1.084       .  S
C990        C991   1.422       .  A
C991        C992   1.403       .  A
C991        C995   1.509       .  S
C992        H996   1.084       .  S
C993       H1003   1.111       .  S
C993       H1004   1.110       .  S
C993       H1005   1.109       .  S
C995       H1006   1.110       .  S
C995       H1007   1.109       .  S
C995       H1008   1.111       .  S
C1009      C1010   1.400       .  A
C1009      C1014   1.401       .  A
C1009      H1019   1.085       .  S
C1010      C1011   1.410       .  A
C1010      C1015   1.477       .  S
C1011      C1012   1.402       .  A
C1011      C1016   1.506       .  S
C1012      C1013   1.403       .  A
C1012      H1017   1.084       .  S
C1013      C1014   1.415       .  A
C1014      C1018   1.508       .  S
C1015      C1020   1.410       .  A
C1015      C1024   1.398       .  A
C1016      H1032   1.110       .  S
C1016      H1033   1.110       .  S
C1016      H1034   1.111       .  S
C1018      H1029   1.111       .  S
C1018      H1030   1.110       .  S
C1018      H1031   1.107       .  S
C1020      C1021   1.404       .  A
C1020      C1025   1.506       .  S
C1021      C1022   1.404       .  A
C1021      H1026   1.085       .  S
C1022      C1023   1.419       .  A
C1023      C1024   1.400       .  A
C1023      C1027   1.509       .  S
C1024      H1028   1.085       .  S
C1025      H1035   1.111       .  S
C1025      H1036   1.110       .  S
C1025      H1037   1.110       .  S
C1027      H1038   1.110       .  S
C1027      H1039   1.107       .  S
C1027      H1040   1.111       .  S
C1041      C1042   1.400       .  A
C1041      C1046   1.400       .  A
C1041      H1051   1.086       .  S
C1042      C1043   1.409       .  A
C1042      C1047   1.482       .  S
C1043      C1044   1.408       .  A
C1043      C1048   1.505       .  S
C1044      C1045   1.408       .  A
C1044      H1049   1.084       .  S
C1045      C1046   1.419       .  A
C1046      C1050   1.509       .  S
C1047      C1052   1.411       .  A
C1047      C1056   1.401       .  A
C1048      H1064   1.110       .  S
C1048      H1065   1.110       .  S
C1048      H1066   1.111       .  S
C1050      H1061   1.111       .  S
C1050      H1062   1.111       .  S
C1050      H1063   1.107       .  S
C1052      C1053   1.403       .  A
C1052      C1057   1.507       .  S
C1053      C1054   1.404       .  A
C1053      H1058   1.085       .  S
C1054      C1055   1.416       .  A
C1055      C1056   1.405       .  A
C1055      C1059   1.507       .  S
C1056      H1060   1.085       .  S
C1057      H1067   1.111       .  S
C1057      H1068   1.110       .  S
C1057      H1069   1.110       .  S
C1059      H1070   1.110       .  S
C1059      H1071   1.107       .  S
C1059      H1072   1.110       .  S
C1073      C1074   1.403       .  A
C1073      C1078   1.406       .  A
C1073      H1083   1.084       .  S
C1074      C1075   1.414       .  A
C1074      C1079   1.484       .  S
C1075      C1076   1.404       .  A
C1075      C1080   1.509       .  S
C1076      C1077   1.402       .  A
C1076      H1081   1.084       .  S
C1077      C1078   1.414       .  A
C1078      C1082   1.506       .  S
C1079      C1084   1.411       .  A
C1079      C1088   1.399       .  A
C1080      H1096   1.110       .  S
C1080      H1097   1.108       .  S
C1080      H1098   1.111       .  S
C1082      H1093   1.110       .  S
C1082      H1094   1.111       .  S
C1082      H1095   1.108       .  S
C1084      C1085   1.410       .  A
C1084      C1089   1.506       .  S
C1085      C1086   1.408       .  A
C1085      H1090   1.084       .  S
C1086      C1087   1.420       .  A
C1087      C1088   1.399       .  A
C1087      C1091   1.509       .  S
C1088      H1092   1.085       .  S
C1089      H1099   1.111       .  S
C1089      H1100   1.110       .  S
C1089      H1101   1.108       .  S
C1091      H1102   1.111       .  S
C1091      H1103   1.107       .  S
C1091      H1104   1.110       .  S
C1105      C1106   1.400       .  A
C1105      C1110   1.402       .  A
C1105      H1115   1.085       .  S
C1106      C1107   1.410       .  A
C1106      C1111   1.478       .  S
C1107      C1108   1.402       .  A
C1107      C1112   1.507       .  S
C1108      C1109   1.404   1_655  A
C1108      H1113   1.084   1_655  S
C1109      C1110   1.418   1_455  A
C1110      C1114   1.508       .  S
C1111      C1116   1.410       .  A
C1111      C1120   1.398       .  A
C1112      H1128   1.110       .  S
C1112      H1129   1.110       .  S
C1112      H1130   1.111       .  S
C1114      H1125   1.110       .  S
C1114      H1126   1.110       .  S
C1114      H1127   1.106   1_655  S
C1116      C1117   1.404       .  A
C1116      C1121   1.506       .  S
C1117      C1118   1.405       .  A
C1117      H1122   1.084       .  S
C1118      C1119   1.420       .  A
C1119      C1120   1.401       .  A
C1119      C1123   1.510       .  S
C1120      H1124   1.085       .  S
C1121      H1131   1.111       .  S
C1121      H1132   1.110       .  S
C1121      H1133   1.110       .  S
C1123      H1134   1.110       .  S
C1123      H1135   1.106       .  S
C1123      H1136   1.111       .  S
C1137      C1138   1.398       .  A
C1137      C1142   1.400       .  A
C1137      H1147   1.085       .  S
C1138      C1139   1.409       .  A
C1138      C1143   1.481       .  S
C1139      C1140   1.408       .  A
C1139      C1144   1.506       .  S
C1140      C1141   1.409       .  A
C1140      H1145   1.084       .  S
C1141      C1142   1.420       .  A
C1142      C1146   1.510       .  S
C1143      C1148   1.413       .  A
C1143      C1152   1.403       .  A
C1144      H1160   1.110       .  S
C1144      H1161   1.109       .  S
C1144      H1162   1.111       .  S
C1146      H1157   1.109       .  S
C1146      H1158   1.111       .  S
C1146      H1159   1.110       .  S
C1148      C1149   1.401       .  A
C1148      C1153   1.509       .  S
C1149      C1150   1.402       .  A
C1149      H1154   1.085       .  S
C1150      C1151   1.413       .  A
C1151      C1152   1.405       .  A
C1151      C1155   1.506       .  S
C1152      H1156   1.085       .  S
C1153      H1163   1.111       .  S
C1153      H1164   1.110       .  S
C1153      H1165   1.108       .  S
C1155      H1166   1.110       .  S
C1155      H1167   1.109       .  S
C1155      H1168   1.110       .  S
C1169      C1170   1.402       .  A
C1169      C1174   1.404       .  A
C1169      H1179   1.084       .  S
C1170      C1171   1.410       .  A
C1170      C1175   1.481       .  S
C1171      C1172   1.404       .  A
C1171      C1176   1.506       .  S
C1172      C1173   1.404   1_655  A
C1172      H1177   1.084   1_655  S
C1173      C1174   1.413   1_455  A
C1174      C1178   1.507   1_655  S
C1175      C1180   1.406       .  A
C1175      C1184   1.400       .  A
C1176      H1192   1.110       .  S
C1176      H1193   1.110       .  S
C1176      H1194   1.111       .  S
C1178      H1189   1.111   1_455  S
C1178      H1190   1.110       .  S
C1178      H1191   1.109       .  S
C1180      C1181   1.402       .  A
C1180      C1185   1.507       .  S
C1181      C1182   1.412       .  A
C1181      H1186   1.083       .  S
C1182      C1183   1.424       .  A
C1183      C1184   1.407       .  A
C1183      C1187   1.508       .  S
C1184      H1188   1.084       .  S
C1185      H1195   1.111       .  S
C1185      H1196   1.110       .  S
C1185      H1197   1.110       .  S
C1187      H1198   1.110       .  S
C1187      H1199   1.110       .  S
C1187      H1200   1.111       .  S
C1201      C1202   1.402       .  A
C1201      C1206   1.404       .  A
C1201      H1211   1.084       .  S
C1202      C1203   1.410       .  A
C1202      C1207   1.480       .  S
C1203      C1204   1.403       .  A
C1203      C1208   1.507       .  S
C1204      C1205   1.404       .  A
C1204      H1209   1.084       .  S
C1205      C1206   1.415       .  A
C1206      C1210   1.507       .  S
C1207      C1212   1.408       .  A
C1207      C1216   1.401       .  A
C1208      H1224   1.110       .  S
C1208      H1225   1.109       .  S
C1208      H1226   1.111       .  S
C1210      H1221   1.108       .  S
C1210      H1222   1.110       .  S
C1210      H1223   1.111       .  S
C1212      C1213   1.403       .  A
C1212      C1217   1.507       .  S
C1213      C1214   1.408       .  A
C1213      H1218   1.083       .  S
C1214      C1215   1.419       .  A
C1215      C1216   1.405       .  A
C1215      C1219   1.507       .  S
C1216      H1220   1.084       .  S
C1217      H1227   1.111       .  S
C1217      H1228   1.110       .  S
C1217      H1229   1.109       .  S
C1219      H1230   1.109       .  S
C1219      H1231   1.110       .  S
C1219      H1232   1.111       .  S
C1233      C1234   1.402       .  A
C1233      C1238   1.402       .  A
C1233      H1243   1.085       .  S
C1234      C1235   1.416       .  A
C1234      C1239   1.489       .  S
C1235      C1236   1.407       .  A
C1235      C1240   1.507       .  S
C1236      C1237   1.402       .  A
C1236      H1241   1.085       .  S
C1237      C1238   1.415       .  A
C1238      C1242   1.507       .  S
C1239      C1244   1.413       .  A
C1239      C1248   1.400       .  A
C1240      H1256   1.109       .  S
C1240      H1257   1.110       .  S
C1240      H1258   1.111       .  S
C1242      H1253   1.110       .  S
C1242      H1254   1.110       .  S
C1242      H1255   1.110       .  S
C1244      C1245   1.411       .  A
C1244      C1249   1.506       .  S
C1245      C1246   1.408       .  A
C1245      H1250   1.083       .  S
C1246      C1247   1.421       .  A
C1247      C1248   1.401       .  A
C1247      C1251   1.511       .  S
C1248      H1252   1.084       .  S
C1249      H1259   1.111       .  S
C1249      H1260   1.109       .  S
C1249      H1261   1.110       .  S
C1251      H1262   1.111       .  S
C1251      H1263   1.109       .  S
C1251      H1264   1.111       .  S
C1265      C1266   1.400       .  A
C1265      C1270   1.409       .  A
C1265      H1275   1.084       .  S
C1266      C1267   1.410       .  A
C1266      C1271   1.481       .  S
C1267      C1268   1.400       .  A
C1267      C1272   1.510       .  S
C1268      C1269   1.409       .  A
C1268      H1273   1.084       .  S
C1269      C1270   1.422       .  A
C1270      C1274   1.507       .  S
C1271      C1276   1.411       .  A
C1271      C1280   1.401       .  A
C1272      H1288   1.110       .  S
C1272      H1289   1.109       .  S
C1272      H1290   1.111       .  S
C1274      H1285   1.111       .  S
C1274      H1286   1.110       .  S
C1274      H1287   1.110       .  S
C1276      C1277   1.406       .  A
C1276      C1281   1.506       .  S
C1277      C1278   1.404       .  A
C1277      H1282   1.084       .  S
C1278      C1279   1.414       .  A
C1279      C1280   1.400       .  A
C1279      C1283   1.508       .  S
C1280      H1284   1.085       .  S
C1281      H1291   1.111       .  S
C1281      H1292   1.110       .  S
C1281      H1293   1.109       .  S
C1283      H1294   1.110       .  S
C1283      H1295   1.109       .  S
C1283      H1296   1.111       .  S
C1297      C1298   1.400       .  A
C1297      C1302   1.403       .  A
C1297      H1307   1.085       .  S
C1298      C1299   1.411       .  A
C1298      C1303   1.482       .  S
C1299      C1300   1.407       .  A
C1299      C1304   1.506       .  S
C1300      C1301   1.406       .  A
C1300      H1305   1.085       .  S
C1301      C1302   1.416       .  A
C1302      C1306   1.508       .  S
C1303      C1308   1.409       .  A
C1303      C1312   1.401       .  A
C1304      H1320   1.110       .  S
C1304      H1321   1.109       .  S
C1304      H1322   1.111       .  S
C1306      H1317   1.108       .  S
C1306      H1318   1.111       .  S
C1306      H1319   1.111       .  S
C1308      C1309   1.403       .  A
C1308      C1313   1.507       .  S
C1309      C1310   1.409       .  A
C1309      H1314   1.084       .  S
C1310      C1311   1.421       .  A
C1311      C1312   1.406       .  A
C1311      C1315   1.508       .  S
C1312      H1316   1.085       .  S
C1313      H1323   1.111       .  S
C1313      H1324   1.110       .  S
C1313      H1325   1.109       .  S
C1315      H1326   1.111       .  S
C1315      H1327   1.111       .  S
C1315      H1328   1.110       .  S
C1329      C1330   1.403       .  A
C1329      C1334   1.406       .  A
C1329      H1339   1.087       .  S
C1330      C1331   1.411       .  A
C1330      C1335   1.487       .  S
C1331      C1332   1.404       .  A
C1331      C1336   1.507       .  S
C1332      C1333   1.405       .  A
C1332      H1337   1.086       .  S
C1333      C1334   1.416       .  A
C1334      C1338   1.507       .  S
C1335      C1340   1.408       .  A
C1335      C1344   1.400       .  A
C1336      H1352   1.110       .  S
C1336      H1353   1.110       .  S
C1336      H1354   1.111       .  S
C1338      H1349   1.110       .  S
C1338      H1350   1.111       .  S
C1338      H1351   1.107       .  S
C1340      C1341   1.405       .  A
C1340      C1345   1.507       .  S
C1341      C1342   1.411       .  A
C1341      H1346   1.082       .  S
C1342      C1343   1.425       .  A
C1343      C1344   1.407       .  A
C1343      C1347   1.509       .  S
C1344      H1348   1.083       .  S
C1345      H1355   1.111       .  S
C1345      H1356   1.110       .  S
C1345      H1357   1.110       .  S
C1347      H1358   1.111       .  S
C1347      H1359   1.110       .  S
C1347      H1360   1.111       .  S
C1361      C1362   1.399       .  A
C1361      C1366   1.410       .  A
C1361      H1371   1.083       .  S
C1362      C1363   1.409       .  A
C1362      C1367   1.480       .  S
C1363      C1364   1.399       .  A
C1363      C1368   1.509       .  S
C1364      C1365   1.409       .  A
C1364      H1369   1.082       .  S
C1365      C1366   1.425       .  A
C1366      C1370   1.507       .  S
C1367      C1372   1.411       .  A
C1367      C1376   1.401       .  A
C1368      H1384   1.110       .  S
C1368      H1385   1.110       .  S
C1368      H1386   1.110       .  S
C1370      H1381   1.110       .  S
C1370      H1382   1.111       .  S
C1370      H1383   1.110       .  S
C1372      C1373   1.404       .  A
C1372      C1377   1.505       .  S
C1373      C1374   1.402       .  A
C1373      H1378   1.086       .  S
C1374      C1375   1.414       .  A
C1375      C1376   1.401       .  A
C1375      C1379   1.507       .  S
C1376      H1380   1.086       .  S
C1377      H1387   1.111       .  S
C1377      H1388   1.110       .  S
C1377      H1389   1.110       .  S
C1379      H1390   1.110       .  S
C1379      H1391   1.109       .  S
C1379      H1392   1.110       .  S
C1393      C1394   1.399       .  A
C1393      C1398   1.400       .  A
C1393      H1403   1.084       .  S
C1394      C1395   1.410       .  A
C1394      C1399   1.481       .  S
C1395      C1396   1.408       .  A
C1395      C1400   1.506       .  S
C1396      C1397   1.409       .  A
C1396      H1401   1.083       .  S
C1397      C1398   1.419       .  A
C1398      C1402   1.510       .  S
C1399      C1404   1.413       .  A
C1399      C1408   1.403       .  A
C1400      H1416   1.110       .  S
C1400      H1417   1.108       .  S
C1400      H1418   1.111       .  S
C1402      H1413   1.111       .  S
C1402      H1414   1.111       .  S
C1402      H1415   1.109       .  S
C1404      C1405   1.402       .  A
C1404      C1409   1.509       .  S
C1405      C1406   1.402       .  A
C1405      H1410   1.084       .  S
C1406      C1407   1.413       .  A
C1407      C1408   1.404       .  A
C1407      C1411   1.506       .  S
C1408      H1412   1.084       .  S
C1409      H1419   1.111       .  S
C1409      H1420   1.110       .  S
C1409      H1421   1.108       .  S
C1411      H1422   1.110       .  S
C1411      H1423   1.109       .  S
C1411      H1424   1.110       .  S
C1425      C1426   1.401       .  A
C1425      C1430   1.404       .  A
C1425      H1435   1.085       .  S
C1426      C1427   1.410       .  A
C1426      C1431   1.480       .  S
C1427      C1428   1.401       .  A
C1427      C1432   1.507       .  S
C1428      C1429   1.403       .  A
C1428      H1433   1.085   1_554  S
C1429      C1430   1.417       .  A
C1430      C1434   1.507       .  S
C1431      C1436   1.408       .  A
C1431      C1440   1.399       .  A
C1432      H1448   1.110       .  S
C1432      H1449   1.111       .  S
C1432      H1450   1.111   1_554  S
C1434      H1445   1.110       .  S
C1434      H1446   1.110       .  S
C1434      H1447   1.108       .  S
C1436      C1437   1.402       .  A
C1436      C1441   1.507       .  S
C1437      C1438   1.409       .  A
C1437      H1442   1.084       .  S
C1438      C1439   1.423       .  A
C1439      C1440   1.405       .  A
C1439      C1443   1.508       .  S
C1440      H1444   1.084       .  S
C1441      H1451   1.111       .  S
C1441      H1452   1.110       .  S
C1441      H1453   1.110       .  S
C1443      H1454   1.111       .  S
C1443      H1455   1.110       .  S
C1443      H1456   1.110       .  S
C1457      C1458   1.401       .  A
C1457      C1462   1.408       .  A
C1457      H1467   1.082       .  S
C1458      C1459   1.410       .  A
C1458      C1463   1.480       .  S
C1459      C1460   1.400       .  A
C1459      C1464   1.508       .  S
C1460      C1461   1.405       .  A
C1460      H1465   1.083       .  S
C1461      C1462   1.419       .  A
C1462      C1466   1.507       .  S
C1463      C1468   1.410       .  A
C1463      C1472   1.401       .  A
C1464      H1480   1.110       .  S
C1464      H1481   1.110       .  S
C1464      H1482   1.111       .  S
C1466      H1477   1.111       .  S
C1466      H1478   1.110       .  S
C1466      H1479   1.110       .  S
C1468      C1469   1.405       .  A
C1468      C1473   1.505       .  S
C1469      C1470   1.403       .  A
C1469      H1474   1.084       .  S
C1470      C1471   1.414       .  A
C1471      C1472   1.401       .  A
C1471      C1475   1.507       .  S
C1472      H1476   1.085       .  S
C1473      H1483   1.111       .  S
C1473      H1484   1.110       .  S
C1473      H1485   1.110       .  S
C1475      H1486   1.110       .  S
C1475      H1487   1.109       .  S
C1475      H1488   1.111       .  S
C1489      C1490   1.398       .  A
C1489      C1494   1.402       .  A
C1489      H1499   1.085       .  S
C1490      C1491   1.409       .  A
C1490      C1495   1.485       .  S
C1491      C1492   1.410       .  A
C1491      C1496   1.505       .  S
C1492      C1493   1.411       .  A
C1492      H1497   1.084       .  S
C1493      C1494   1.424       .  A
C1494      C1498   1.510       .  S
C1495      C1500   1.413       .  A
C1495      C1504   1.401       .  A
C1496      H1512   1.110       .  S
C1496      H1513   1.110       .  S
C1496      H1514   1.111       .  S
C1498      H1509   1.109       .  S
C1498      H1510   1.111       .  S
C1498      H1511   1.110       .  S
C1500      C1501   1.406       .  A
C1500      C1505   1.506       .  S
C1501      C1502   1.403       .  A
C1501      H1506   1.085       .  S
C1502      C1503   1.415       .  A
C1503      C1504   1.403       .  A
C1503      C1507   1.507       .  S
C1504      H1508   1.085       .  S
C1505      H1515   1.111       .  S
C1505      H1516   1.110       .  S
C1505      H1517   1.109       .  S
C1507      H1518   1.111       .  S
C1507      H1519   1.109       .  S
C1507      H1520   1.110       .  S
C1521      C1522   1.401       .  A
C1521      C1526   1.405       .  A
C1521      H1531   1.084       .  S
C1522      C1523   1.410       .  A
C1522      C1527   1.481       .  S
C1523      C1524   1.401       .  A
C1523      C1528   1.507       .  S
C1524      C1525   1.404       .  A
C1524      H1529   1.083       .  S
C1525      C1526   1.418       .  A
C1526      C1530   1.508       .  S
C1527      C1532   1.409       .  A
C1527      C1536   1.398       .  A
C1528      H1544   1.110       .  S
C1528      H1545   1.110       .  S
C1528      H1546   1.111       .  S
C1530      H1541   1.110       .  S
C1530      H1542   1.110       .  S
C1530      H1543   1.108       .  S
C1532      C1533   1.405       .  A
C1532      C1537   1.507       .  S
C1533      C1534   1.408       .  A
C1533      H1538   1.085       .  S
C1534      C1535   1.423       .  A
C1535      C1536   1.404       .  A
C1535      C1539   1.509       .  S
C1536      H1540   1.086       .  S
C1537      H1547   1.111       .  S
C1537      H1548   1.110       .  S
C1537      H1549   1.110       .  S
C1539      H1550   1.110       .  S
C1539      H1551   1.109       .  S
C1539      H1552   1.111       .  S
C1553      C1554   1.401       .  A
C1553      C1558   1.408       .  A
C1553      H1563   1.084       .  S
C1554      C1555   1.411       .  A
C1554      C1559   1.483       .  S
C1555      C1556   1.401       .  A
C1555      C1560   1.508       .  S
C1556      C1557   1.404       .  A
C1556      H1561   1.085       .  S
C1557      C1558   1.420       .  A
C1558      C1562   1.508       .  S
C1559      C1564   1.411       .  A
C1559      C1568   1.400       .  A
C1560      H1576   1.110       .  S
C1560      H1577   1.109       .  S
C1560      H1578   1.111       .  S
C1562      H1573   1.110       .  S
C1562      H1574   1.111       .  S
C1562      H1575   1.105       .  S
C1564      C1565   1.408       .  A
C1564      C1569   1.505       .  S
C1565      C1566   1.405       .  A
C1565      H1570   1.084       .  S
C1566      C1567   1.415       .  A
C1567      C1568   1.400       .  A
C1567      C1571   1.508       .  S
C1568      H1572   1.085       .  S
C1569      H1579   1.111       .  S
C1569      H1580   1.110       .  S
C1569      H1581   1.109       .  S
C1571      H1582   1.110       .  S
C1571      H1583   1.109       .  S
C1571      H1584   1.110       .  S
C1585      C1586   1.400       .  A
C1585      C1590   1.403       .  A
C1585      H1595   1.084       .  S
C1586      C1587   1.410       .  A
C1586      C1591   1.482       .  S
C1587      C1588   1.406       .  A
C1587      C1592   1.505       .  S
C1588      C1589   1.406       .  A
C1588      H1593   1.084       .  S
C1589      C1590   1.417       .  A
C1590      C1594   1.508       .  S
C1591      C1596   1.408       .  A
C1591      C1600   1.400       .  A
C1592      H1608   1.110       .  S
C1592      H1609   1.110       .  S
C1592      H1610   1.111       .  S
C1594      H1605   1.108       .  S
C1594      H1606   1.111       .  S
C1594      H1607   1.111       .  S
C1596      C1597   1.404       .  A
C1596      C1601   1.506       .  S
C1597      C1598   1.408       .  A
C1597      H1602   1.084       .  S
C1598      C1599   1.421       .  A
C1599      C1600   1.405       .  A
C1599      C1603   1.508       .  S
C1600      H1604   1.084       .  S
C1601      H1611   1.111       .  S
C1601      H1612   1.110       .  S
C1601      H1613   1.110       .  S
C1603      H1614   1.111       .  S
C1603      H1615   1.111       .  S
C1603      H1616   1.110       .  S
C1617      C1618   1.398       .  A
C1617      C1622   1.404       .  A
C1617      H1627   1.084       .  S
C1618      C1619   1.409       .  A
C1618      C1623   1.480       .  S
C1619      C1620   1.404       .  A
C1619      C1624   1.506       .  S
C1620      C1621   1.407       .  A
C1620      H1625   1.084       .  S
C1621      C1622   1.422       .  A
C1622      C1626   1.509       .  S
C1623      C1628   1.410       .  A
C1623      C1632   1.400       .  A
C1624      H1640   1.110       .  S
C1624      H1641   1.110       .  S
C1624      H1642   1.111       .  S
C1626      H1637   1.111       .  S
C1626      H1638   1.111       .  S
C1626      H1639   1.109       .  S
C1628      C1629   1.402       .  A
C1628      C1633   1.507       .  S
C1629      C1630   1.404       .  A
C1629      H1634   1.084       .  S
C1630      C1631   1.418       .  A
C1631      C1632   1.404       .  A
C1631      C1635   1.507       .  S
C1632      H1636   1.084       .  S
C1633      H1643   1.111       .  S
C1633      H1644   1.110       .  S
C1633      H1645   1.110       .  S
C1635      H1646   1.111       .  S
C1635      H1647   1.108       .  S
C1635      H1648   1.110       .  S
C1649      C1650   1.402       .  A
C1649      C1654   1.404       .  A
C1649      H1659   1.084       .  S
C1650      C1651   1.411       .  A
C1650      C1655   1.485       .  S
C1651      C1652   1.406       .  A
C1651      C1656   1.506       .  S
C1652      C1653   1.405       .  A
C1652      H1657   1.084       .  S
C1653      C1654   1.414       .  A
C1654      C1658   1.506       .  S
C1655      C1660   1.411       .  A
C1655      C1664   1.402       .  A
C1656      H1672   1.110       .  S
C1656      H1673   1.109       .  S
C1656      H1674   1.111       .  S
C1658      H1669   1.110       .  S
C1658      H1670   1.110       .  S
C1658      H1671   1.109       .  S
C1660      C1661   1.401       .  A
C1660      C1665   1.509       .  S
C1661      C1662   1.406       .  A
C1661      H1666   1.084       .  S
C1662      C1663   1.422       .  A
C1663      C1664   1.410       .  A
C1663      C1667   1.508       .  S
C1664      H1668   1.084       .  S
C1665      H1675   1.111       .  S
C1665      H1676   1.110       .  S
C1665      H1677   1.109       .  S
C1667      H1678   1.111       .  S
C1667      H1679   1.104       .  S
C1667      H1680   1.110       .  S
C1681      C1682   1.401       .  A
C1681      C1686   1.402       .  A
C1681      H1691   1.084       .  S
C1682      C1683   1.411       .  A
C1682      C1687   1.483       .  S
C1683      C1684   1.407       .  A
C1683      C1688   1.505       .  S
C1684      C1685   1.405       .  A
C1684      H1689   1.084       .  S
C1685      C1686   1.414       .  A
C1686      C1690   1.508       .  S
C1687      C1692   1.407       .  A
C1687      C1696   1.400       .  A
C1688      H1704   1.110       .  S
C1688      H1705   1.111       .  S
C1688      H1706   1.111       .  S
C1690      H1701   1.111       .  S
C1690      H1702   1.111       .  S
C1690      H1703   1.109       .  S
C1692      C1693   1.403       .  A
C1692      C1697   1.507       .  S
C1693      C1694   1.412       .  A
C1693      H1698   1.083       .  S
C1694      C1695   1.425       .  A
C1695      C1696   1.406       .  A
C1695      C1699   1.508       .  S
C1696      H1700   1.084       .  S
C1697      H1707   1.111       .  S
C1697      H1708   1.110       .  S
C1697      H1709   1.110       .  S
C1699      H1710   1.110       .  S
C1699      H1711   1.110       .  S
C1699      H1712   1.111       .  S
C1713      C1714   1.401       .  A
C1713      C1718   1.401       .  A
C1713      H1723   1.085       .  S
C1714      C1715   1.411       .  A
C1714      C1719   1.481       .  S
C1715      C1716   1.406       .  A
C1715      C1720   1.506       .  S
C1716      C1717   1.404       .  A
C1716      H1721   1.085       .  S
C1717      C1718   1.414       .  A
C1718      C1722   1.507       .  S
C1719      C1724   1.411       .  A
C1719      C1728   1.401       .  A
C1720      H1736   1.110       .  S
C1720      H1737   1.109       .  S
C1720      H1738   1.111       .  S
C1722      H1733   1.110       .  S
C1722      H1734   1.110       .  S
C1722      H1735   1.109       .  S
C1724      C1725   1.401       .  A
C1724      C1729   1.508       .  S
C1725      C1726   1.404       .  A
C1725      H1730   1.084       .  S
C1726      C1727   1.420       .  A
C1727      C1728   1.407       .  A
C1727      C1731   1.508       .  S
C1728      H1732   1.084       .  S
C1729      H1739   1.111       .  S
C1729      H1740   1.110       .  S
C1729      H1741   1.109       .  S
C1731      H1742   1.111       .  S
C1731      H1743   1.105       .  S
C1731      H1744   1.110       .  S
C1745      C1746   1.401       .  A
C1745      C1750   1.402       .  A
C1745      H1755   1.085       .  S
C1746      C1747   1.412       .  A
C1746      C1751   1.487       .  S
C1747      C1748   1.409       .  A
C1747      C1752   1.506       .  S
C1748      C1749   1.405       .  A
C1748      H1753   1.084       .  S
C1749      C1750   1.414       .  A
C1750      C1754   1.507       .  S
C1751      C1756   1.412       .  A
C1751      C1760   1.401       .  A
C1752      H1768   1.110       .  S
C1752      H1769   1.109       .  S
C1752      H1770   1.111       .  S
C1754      H1765   1.110       .  S
C1754      H1766   1.110       .  S
C1754      H1767   1.109       .  S
C1756      C1757   1.404       .  A
C1756      C1761   1.509       .  S
C1757      C1758   1.406       .  A
C1757      H1762   1.084       .  S
C1758      C1759   1.422       .  A
C1759      C1760   1.409       .  A
C1759      C1763   1.508       .  S
C1760      H1764   1.085       .  S
C1761      H1771   1.111       .  S
C1761      H1772   1.110       .  S
C1761      H1773   1.109       .  S
C1763      H1774   1.111       .  S
C1763      H1775   1.104       .  S
C1763      H1776   1.110       .  S
C1777      C1778   1.398       .  A
C1777      C1782   1.400       .  A
C1777      H1787   1.084       .  S
C1778      C1779   1.409       .  A
C1778      C1783   1.477       .  S
C1779      C1780   1.405       .  A
C1779      C1784   1.505       .  S
C1780      C1781   1.406       .  A
C1780      H1785   1.084       .  S
C1781      C1782   1.417       .  A
C1782      C1786   1.509       .  S
C1783      C1788   1.407       .  A
C1783      C1792   1.400       .  A
C1784      H1800   1.110       .  S
C1784      H1801   1.110       .  S
C1784      H1802   1.111       .  S
C1786      H1797   1.107       .  S
C1786      H1798   1.111       .  S
C1786      H1799   1.110       .  S
C1788      C1789   1.401       .  A
C1788      C1793   1.507       .  S
C1789      C1790   1.407       .  A
C1789      H1794   1.083       .  S
C1790      C1791   1.420       .  A
C1791      C1792   1.405       .  A
C1791      C1795   1.508       .  S
C1792      H1796   1.084       .  S
C1793      H1803   1.111       .  S
C1793      H1804   1.110       .  S
C1793      H1805   1.110       .  S
C1795      H1806   1.111       .  S
C1795      H1807   1.110       .  S
C1795      H1808   1.109       .  S
C1809      C1810   1.400       .  A
C1809      C1814   1.406       .  A
C1809      H1819   1.082       .  S
C1810      C1811   1.410       .  A
C1810      C1815   1.482       .  S
C1811      C1812   1.403       .  A
C1811      C1816   1.507       .  S
C1812      C1813   1.406       .  A
C1812      H1817   1.082       .  S
C1813      C1814   1.420       .  A
C1814      C1818   1.508       .  S
C1815      C1820   1.410       .  A
C1815      C1824   1.401       .  A
C1816      H1832   1.110       .  S
C1816      H1833   1.110       .  S
C1816      H1834   1.111       .  S
C1818      H1829   1.111       .  S
C1818      H1830   1.111       .  S
C1818      H1831   1.109       .  S
C1820      C1821   1.402       .  A
C1820      C1825   1.507       .  S
C1821      C1822   1.404       .  A
C1821      H1826   1.084       .  S
C1822      C1823   1.418       .  A
C1823      C1824   1.407       .  A
C1823      C1827   1.508       .  S
C1824      H1828   1.084       .  S
C1825      H1835   1.111       .  S
C1825      H1836   1.110       .  S
C1825      H1837   1.110       .  S
C1827      H1838   1.110       .  S
C1827      H1839   1.107       .  S
C1827      H1840   1.111       .  S
C1841      C1842   1.401       .  A
C1841      C1846   1.405       .  A
C1841      H1851   1.083       .  S
C1842      C1843   1.412       .  A
C1842      C1847   1.481       .  S
C1843      C1844   1.403       .  A
C1843      C1848   1.507       .  S
C1844      C1845   1.403       .  A
C1844      H1849   1.083       .  S
C1845      C1846   1.416       .  A
C1846      C1850   1.507       .  S
C1847      C1852   1.409       .  A
C1847      C1856   1.401       .  A
C1848      H1864   1.110       .  S
C1848      H1865   1.109       .  S
C1848      H1866   1.111       .  S
C1850      H1861   1.110       .  S
C1850      H1862   1.110       .  S
C1850      H1863   1.108       .  S
C1852      C1853   1.407       .  A
C1852      C1857   1.505       .  S
C1853      C1854   1.407       .  A
C1853      H1858   1.083       .  S
C1854      C1855   1.416       .  A
C1855      C1856   1.400       .  A
C1855      C1859   1.508       .  S
C1856      H1860   1.084       .  S
C1857      H1867   1.111       .  S
C1857      H1868   1.110       .  S
C1857      H1869   1.109       .  S
C1859      H1870   1.111       .  S
C1859      H1871   1.108       .  S
C1859      H1872   1.110       .  S
C1873      C1874   1.401       .  A
C1873      C1878   1.408       .  A
C1873      H1883   1.084       .  S
C1874      C1875   1.412       .  A
C1874      C1879   1.485       .  S
C1875      C1876   1.403       .  A
C1875      C1880   1.508       .  S
C1876      C1877   1.405       .  A
C1876      H1881   1.084       .  S
C1877      C1878   1.421       .  A
C1878      C1882   1.508       .  S
C1879      C1884   1.412       .  A
C1879      C1888   1.402       .  A
C1880      H1896   1.110       .  S
C1880      H1897   1.109       .  S
C1880      H1898   1.111       .  S
C1882      H1893   1.110       .  S
C1882      H1894   1.111       .  S
C1882      H1895   1.104       .  S
C1884      C1885   1.407       .  A
C1884      C1889   1.506       .  S
C1885      C1886   1.404       .  A
C1885      H1890   1.084       .  S
C1886      C1887   1.413       .  A
C1887      C1888   1.404       .  A
C1887      C1891   1.507       .  S
C1888      H1892   1.084       .  S
C1889      H1899   1.111       .  S
C1889      H1900   1.110       .  S
C1889      H1901   1.109       .  S
C1891      H1902   1.110       .  S
C1891      H1903   1.110       .  S
C1891      H1904   1.111       .  S
C1905      C1906   1.400       .  A
C1905      C1910   1.402       .  A
C1905      H1915   1.084       .  S
C1906      C1907   1.409       .  A
C1906      C1911   1.478       .  S
C1907      C1908   1.403       .  A
C1907      C1912   1.506       .  S
C1908      C1909   1.404       .  A
C1908      H1913   1.084       .  S
C1909      C1910   1.416       .  A
C1910      C1914   1.508       .  S
C1911      C1916   1.406       .  A
C1911      C1920   1.399       .  A
C1912      H1928   1.110       .  S
C1912      H1929   1.110       .  S
C1912      H1930   1.111       .  S
C1914      H1925   1.111       .  S
C1914      H1926   1.111       .  S
C1914      H1927   1.109       .  S
C1916      C1917   1.401       .  A
C1916      C1921   1.507       .  S
C1917      C1918   1.411       .  A
C1917      H1922   1.084       .  S
C1918      C1919   1.423       .  A
C1919      C1920   1.405       .  A
C1919      C1923   1.508       .  S
C1920      H1924   1.085       .  S
C1921      H1931   1.111       .  S
C1921      H1932   1.110       .  S
C1921      H1933   1.110       .  S
C1923      H1934   1.110       .  S
C1923      H1935   1.110       .  S
C1923      H1936   1.111       .  S
