geometry optimzed in LAMMPS
_audit_creation_date              2020-11-30 
_audit_creation_method            'lammps2cif' 
_symmetry_space_group_name_H-M    'P1' 
_symmetry_Int_Tables_number       1 
_symmetry_cell_setting            triclinic 
loop_ 
_symmetry_equiv_pos_as_xyz 
  x,y,z 
_cell_length_a                    46.67895381 
_cell_length_b                    46.556668380857886 
_cell_length_c                    39.26165328551715 
_cell_angle_alpha                 89.81038428405668 
_cell_angle_beta                  90.0672141825547 
_cell_angle_gamma                 121.71736329576018 
loop_ 
_atom_site_label 
_atom_site_type_symbol 
_atom_site_fract_x 
_atom_site_fract_y 
_atom_site_fract_z 
_atom_site_charge 
C1          C  0.12329745  0.50804929  0.37601238     0.85900
C2          C  0.11004212  0.48233596  0.40567965    -0.54300
C3          C  0.11841616  0.45834056  0.40316162     0.08900
C4          C  0.13917990  0.46218260  0.37142481     0.19800
C5          C  0.16158206  0.52232252  0.37487619    -0.55000
C6          C  0.16951951  0.49814686  0.37270016     0.09000
C7          C  0.10969202  0.48583602  0.34347619    -0.54600
C8          C  0.11815678  0.46189856  0.34138426     0.09500
H9          H  0.09555743  0.48322548  0.42682786     0.14000
H10         H  0.14658640  0.44312810  0.36971088    -0.00200
H11         H  0.18066087  0.54904522  0.37633179     0.14300
H12         H  0.09582487  0.48881528  0.32313697     0.14100
C13         C  0.35061207  0.51424290  0.37845809     0.85900
C14         C  0.34126924  0.49322328  0.41151205    -0.54300
C15         C  0.30890765  0.46613543  0.41249534     0.08900
C16         C  0.28843241  0.46325389  0.38061983     0.19800
C17         C  0.34132008  0.48806080  0.34953591    -0.55000
C18         C  0.30874967  0.46121463  0.35101325     0.09000
C19         C  0.32409671  0.52417432  0.37477651    -0.54600
C20         C  0.29179841  0.49770306  0.37662266     0.09500
H21         H  0.35903944  0.49935677  0.43216213     0.14000
H22         H  0.26181790  0.44196466  0.38109752    -0.00200
H23         H  0.35818125  0.49002663  0.32951276     0.14300
H24         H  0.33027500  0.55002068  0.37171909     0.14100
C25         C  0.11717616  0.63099441  0.38486784     0.85900
C26         C  0.15536510  0.65779109  0.38538499    -0.54300
C27         C  0.16300691  0.69024685  0.38810986     0.08900
C28         C  0.13200779  0.69332503  0.39008975     0.19800
C29         C  0.10305493  0.63806429  0.41727051    -0.55000
C30         C  0.11101265  0.67075390  0.41989441     0.09000
C31         C  0.10402599  0.64303966  0.35508079    -0.54600
C32         C  0.11177332  0.67555395  0.35824049     0.09500
H33         H  0.17464085  0.65159325  0.38240415     0.14000
H34         H  0.13832143  0.71983835  0.39217701    -0.00200
H35         H  0.08874124  0.61911126  0.43661806     0.14300
H36         H  0.09095408  0.62895595  0.33269170     0.14100
C37         C  0.35329669  0.85658427  0.38549796     0.85900
C38         C  0.34629025  0.87440255  0.35623522    -0.54300
C39         C  0.31458282  0.86909963  0.35657444     0.08900
C40         C  0.29306810  0.84730772  0.38662404     0.19800
C41         C  0.34575352  0.87068633  0.41759454    -0.55000
C42         C  0.31393056  0.86488117  0.41851650     0.09000
C43         C  0.32443972  0.81921606  0.38341842    -0.54600
C44         C  0.29294000  0.81443665  0.38357879     0.09500
H45         H  0.36527947  0.89096708  0.33796626     0.14000
H46         H  0.26755993  0.84360022  0.38734523    -0.00200
H47         H  0.36388343  0.88510168  0.43735999     0.14300
H48         H  0.32868254  0.79847520  0.38142265     0.14100
C49         C  0.48398551  0.64095386  0.37597586     0.85900
C50         C  0.50906809  0.64942487  0.34597829    -0.54300
C51         C  0.53666549  0.68158330  0.34698578     0.08900
C52         C  0.53610495  0.70260919  0.37652973     0.19800
C53         C  0.50569693  0.65019189  0.40848010    -0.55000
C54         C  0.53303289  0.68248797  0.40873592     0.09000
C55         C  0.47527075  0.66856208  0.37287549    -0.54600
C56         C  0.50247834  0.70061271  0.37319570     0.09500
H57         H  0.50552339  0.63293561  0.32498741     0.14000
H58         H  0.55799413  0.72896035  0.37660884    -0.00200
H59         H  0.49944392  0.63276905  0.42960439     0.14300
H60         H  0.44975187  0.66323138  0.37022821     0.14100
C61         C  0.48406239  0.86470186  0.37322121     0.85900
C62         C  0.50630421  0.88189658  0.34143756    -0.54300
C63         C  0.53286305  0.87743645  0.33870829     0.08900
C64         C  0.53563041  0.85741779  0.36822126     0.19800
C65         C  0.47477570  0.82778727  0.37174967    -0.55000
C66         C  0.50171467  0.82398751  0.36953706     0.09000
C67         C  0.50942607  0.88026780  0.40320210    -0.54600
C68         C  0.53639179  0.87625820  0.40053498     0.09500
H69         H  0.50180548  0.89636741  0.32283591     0.14000
H70         H  0.55721787  0.85381192  0.36597800    -0.00200
H71         H  0.44894989  0.80650923  0.37245602     0.14300
H72         H  0.50684673  0.89365830  0.42436262     0.14100
C73         C  0.50862230  0.14956427  0.12401406     0.85900
C74         C  0.48657997  0.13402937  0.09212063    -0.54300
C75         C  0.46059196  0.13932132  0.09011849     0.08900
C76         C  0.45881622  0.15957966  0.11964820     0.19800
C77         C  0.51949334  0.18720306  0.12347038    -0.55000
C78         C  0.49331171  0.19225933  0.12065110     0.09000
C79         C  0.48338678  0.13477589  0.15427149    -0.54600
C80         C  0.45737946  0.14034639  0.15208931     0.09500
H81         H  0.49093919  0.11985593  0.07309560     0.14000
H82         H  0.43790182  0.16419692  0.11720719    -0.00200
H83         H  0.54554911  0.20789363  0.12469629     0.14300
H84         H  0.48560713  0.12134628  0.17555297     0.14100
C85         C  0.63198817  0.14432227  0.13499467     0.85900
C86         C  0.63961798  0.12733326  0.10569441    -0.54300
C87         C  0.67072521  0.13125533  0.10746698     0.08900
C88         C  0.69144573  0.15192094  0.13830992     0.19800
C89         C  0.63851693  0.13052553  0.16820952    -0.55000
C90         C  0.66941824  0.13426280  0.16957395     0.09000
C91         C  0.66157091  0.18149623  0.13426444    -0.54600
C92         C  0.69272033  0.18549243  0.13549906     0.09500
H93         H  0.62203856  0.11378290  0.08515168     0.14000
H94         H  0.71667390  0.15509991  0.13959854    -0.00200
H95         H  0.62191924  0.12056503  0.18995663     0.14300
H96         H  0.65796823  0.20270483  0.13407516     0.14100
C97         C  0.86155141  0.37442702  0.14025764     0.85900
C98         C  0.87582899  0.37070172  0.17447075    -0.54300
C99         C  0.87264173  0.34008146  0.17862798     0.08900
C100        C  0.85450611  0.31545197  0.14922992     0.19800
C101        C  0.87821700  0.36471833  0.11246367    -0.55000
C102        C  0.87445645  0.33377356  0.11717867     0.09000
C103        C  0.82449201  0.34433975  0.14123721    -0.54600
C104        C  0.82072087  0.31332784  0.14540515     0.09500
H105        H  0.88644634  0.38967835  0.19423216     0.14000
H106        H  0.85202190  0.29072096  0.15252669    -0.00200
H107        H  0.89089745  0.38053072  0.09043428     0.14300
H108        H  0.80301108  0.34729803  0.13895791     0.14100
C109        C  0.85632051  0.49786982  0.12428434     0.85900
C110        C  0.87521903  0.52562557  0.15171582    -0.54300
C111        C  0.86931159  0.55143726  0.14970504     0.08900
C112        C  0.84508620  0.54713103  0.12113762     0.19800
C113        C  0.81913166  0.48687524  0.12976245    -0.55000
C114        C  0.81347348  0.51268296  0.12797586     0.09000
C115        C  0.86653935  0.51725424  0.09011799    -0.54600
C116        C  0.86062551  0.54304646  0.08851529     0.04700
H117        H  0.89035834  0.52459206  0.17203839     0.14000
H118        H  0.83982953  0.56776797  0.11988767    -0.00200
H119        H  0.79912001  0.46109044  0.13522388     0.14300
H120        H  0.87752654  0.51107972  0.06919477     0.14100
C121        C  0.63376299  0.50028527  0.12621217     0.85900
C122        C  0.64229279  0.52575741  0.15531324    -0.54300
C123        C  0.67532932  0.55113154  0.15606586     0.08900
C124        C  0.69668942  0.54922589  0.12774794     0.19800
C125        C  0.64558435  0.52297277  0.09385802    -0.55000
C126        C  0.67876644  0.54845706  0.09483225     0.09000
C127        C  0.65881140  0.48850683  0.12991623    -0.54600
C128        C  0.69160426  0.51408552  0.13066203     0.09500
H129        H  0.62375271  0.52450446  0.17293173     0.14000
H130        H  0.72346745  0.57011119  0.12894520    -0.00200
H131        H  0.62949902  0.52058344  0.07277434     0.14300
H132        H  0.65115513  0.46211831  0.13182963     0.14100
C133        C  0.50331209  0.37163125  0.12817359     0.85900
C134        C  0.51404828  0.34574532  0.12391763    -0.54300
C135        C  0.48802980  0.31300360  0.12446212     0.08900
C136        C  0.45351110  0.30884598  0.12929335     0.19800
C137        C  0.47628252  0.36286372  0.10065897    -0.55000
C138        C  0.45105689  0.32975097  0.10068568     0.09000
C139        C  0.48259715  0.36114019  0.16151441    -0.54600
C140        C  0.45632937  0.32827015  0.16192449     0.09500
H141        H  0.54006167  0.35280211  0.12056593     0.14000
H142        H  0.43226370  0.28212444  0.12946512    -0.00200
H143        H  0.47604851  0.38087618  0.08328903     0.14300
H144        H  0.48758662  0.37826111  0.18248547     0.14100
In145      In  0.29400088  0.07992095  0.46512156     1.36900
C146        C  0.29333043  0.07410067  0.39754549     0.77000
O147        O  0.26663303  0.02314491  0.46369707    -0.61400
O148        O  0.25868105  0.04619683  0.50625934    -0.52300
C149        C  0.35117267  0.09742626  0.99687744     0.69700
O150        O  0.35041800  0.10339963  0.46748667    -0.47200
C151        C  0.28643615  0.13280596  0.47158595     0.74400
O152        O  0.31681579  0.07660462  0.41575037    -0.59100
O153        O  0.26149155  0.10293958  0.47273342    -0.49100
O154        O  0.26934273  0.07252988  0.41399553    -0.55500
C155        C  0.25326872  0.01931696  0.49259384     0.84600
O156        O  0.32250970  0.08412544  0.01035723    -0.57400
O157        O  0.31437497  0.13509308  0.46899170    -0.60700
In158      In  0.22000457  0.93099072  0.04560031     1.36900
C159        C  0.22667316  0.93991198  0.11285396     0.77000
O160        O  0.22817479  0.95914420  0.99570225    -0.61400
O161        O  0.23711075  0.98614466  0.04161081    -0.52300
C162        C  0.25743020  0.91067626  0.01543965     0.69700
O163        O  0.27043788  0.93661568  0.03414417    -0.47200
C164        C  0.15759941  0.87716403  0.04521982     0.74400
O165        O  0.24601857  0.93440662  0.09540298    -0.59100
O166        O  0.16388012  0.90498363  0.03268343    -0.49100
O167        O  0.20558426  0.94298222  0.09570012    -0.55500
C168        C  0.23885377  0.98730844  0.00961353     0.84600
O169        O  0.22194357  0.89492646  0.51203483    -0.57400
O170        O  0.18269052  0.87762144  0.05753399    -0.60700
In171      In  0.91939610  0.22810160  0.47205177     1.36900
C172        C  0.93022358  0.23509292  0.40516063     0.77000
O173        O  0.97008752  0.27071580  0.48570718    -0.61400
O174        O  0.95910724  0.22135556  0.49805617    -0.52300
C175        C  0.90210725  0.25940769  0.01792013     0.69700
O176        O  0.90475154  0.26587276  0.48404206    -0.47200
C177        C  0.86235933  0.16816597  0.47185826     0.74400
O178        O  0.92342380  0.25387031  0.42189664    -0.59100
O179        O  0.88939993  0.17186649  0.48342288    -0.49100
O180        O  0.93392734  0.21465588  0.42291112    -0.55500
C181        C  0.97970917  0.25288168  0.49979890     0.84600
O182        O  0.90864289  0.23749224  0.02732631    -0.57400
O183        O  0.86479822  0.19478168  0.46080902    -0.60700
In184      In  0.07387340  0.30207506  0.04312952     1.36900
C185        C  0.06385438  0.29831455  0.10977123     0.77000
O186        O  0.02550755  0.29630908  0.02874626    -0.61400
O187        O  0.02996507  0.25358729  0.02102417    -0.52300
C188        C  0.09399492  0.35611586  0.50304333     0.69700
O189        O  0.08993437  0.35621208  0.03397708    -0.47200
C190        C  0.12789475  0.29686113  0.04130559     0.74400
O191        O  0.07358304  0.32503564  0.09301250    -0.59100
O192        O  0.10123242  0.27608718  0.02564540    -0.49100
O193        O  0.05738494  0.27293862  0.09222545    -0.55500
C194        C  0.01237930  0.26678456  0.01749654     0.84600
O195        O  0.09051886  0.32851653  0.49366950    -0.57400
O196        O  0.12664379  0.31977265  0.05682803    -0.60700
In197      In  0.77017315  0.07904404  0.46861679     1.36900
C198        C  0.76646489  0.06897242  0.40152321     0.77000
O199        O  0.80439668  0.13374453  0.45786955    -0.61400
O200        O  0.82541517  0.10856257  0.48331499    -0.52300
C201        C  0.73771854  0.09559154  0.00732000     0.69700
O202        O  0.73216761  0.09438438  0.47798360    -0.47200
C203        C  0.74387430  0.01861831  0.49795588     0.74400
O204        O  0.74551938  0.07317672  0.41753070    -0.59100
O205        O  0.77534210  0.03784262  0.49413735    -0.49100
O206        O  0.78764817  0.06739317  0.42006263    -0.55500
C207        C  0.83006241  0.13586882  0.47104698     0.84600
O208        O  0.76113684  0.09178934  0.01771059    -0.57400
O209        O  0.72665448  0.02956000  0.48527823    -0.60700
In210      In  0.69203367  0.92444110  0.04266687     1.36900
C211        C  0.69644698  0.93552837  0.10952297     0.77000
O212        O  0.67224232  0.86999503  0.05207212    -0.61400
O213        O  0.72024366  0.89854473  0.02848633    -0.52300
C214        C  0.63990793  0.90622232  0.00163057     0.69700
O215        O  0.63856308  0.91069248  0.03317776    -0.47200
C216        C  0.72818155  0.98488047  0.01397760     0.74400
O217        O  0.66919755  0.92351653  0.09335054    -0.59100
O218        O  0.74020361  0.96631292  0.01803548    -0.49100
O219        O  0.72178452  0.94337383  0.09135471    -0.55500
C220        C  0.69734876  0.87030027  0.03995264     0.84600
O221        O  0.66768107  0.91305933  0.49192940    -0.57400
O222        O  0.69927732  0.97335413  0.02629090    -0.60700
In223      In  0.06774289  0.78546525  0.04569791     1.36900
C224        C  0.06102147  0.78010927  0.11286349     0.77000
O225        O  0.12186431  0.81903283  0.05676762    -0.61400
O226        O  0.09745579  0.84218828  0.03430622    -0.52300
C227        C  0.08341742  0.74600141  0.01166854     0.69700
O228        O  0.06180130  0.73454804  0.03531339    -0.47200
C229        C  0.01028197  0.76824178  0.01386176     0.74400
O230        O  0.06644077  0.76070688  0.09534224    -0.59100
O231        O  0.01166457  0.76395310  0.04532090    -0.49100
O232        O  0.05719340  0.80094579  0.09587205    -0.55500
C233        C  0.12456993  0.84563711  0.04542415     0.84600
O234        O  0.09340947  0.77513554  0.50838383    -0.57400
O235        O  0.03850944  0.78435949  0.99932913    -0.60700
In236      In  0.92032503  0.71247509  0.46046926     1.36900
C237        C  0.92713452  0.71243786  0.39333881     0.77000
O238        O  0.86663041  0.69332280  0.45071762    -0.61400
O239        O  0.89551517  0.74273559  0.47130062    -0.52300
C240        C  0.89984876  0.65264222  0.99455634     0.69700
O241        O  0.92830291  0.66921378  0.47270770    -0.47200
C242        C  0.97656445  0.75475850  0.49356777     0.74400
O243        O  0.91970117  0.68708147  0.41159878    -0.59100
O244        O  0.94817461  0.73993409  0.50784390    -0.49100
O245        O  0.93292083  0.73829130  0.40954546    -0.55500
C246        C  0.86716613  0.71917832  0.46087615     0.84600
O247        O  0.88676181  0.67008819  0.99863553    -0.57400
O248        O  0.97586608  0.75063719  0.46185855    -0.60700
In249      In  0.77700931  0.71500912  0.46012997     1.36900
C250        C  0.77041853  0.71865509  0.39329223     0.77000
O251        O  0.73409294  0.71738763  0.48062432    -0.61400
O252        O  0.78240976  0.76160862  0.48637509    -0.52300
C253        C  0.74754524  0.66094932  0.00235417     0.69700
O254        O  0.73405597  0.66246889  0.46980244    -0.47200
C255        C  0.83626530  0.72005965  0.46040370     0.74400
O256        O  0.75361436  0.69170479  0.41003750    -0.59100
O257        O  0.83288081  0.74289460  0.47368157    -0.49100
O258        O  0.78901475  0.74450986  0.41097009    -0.55500
C259        C  0.75111127  0.74688196  0.49209635     0.84600
O260        O  0.77553908  0.68668917  0.01029246    -0.57400
O261        O  0.81008555  0.69620769  0.44693020    -0.60700
In262      In  0.69793657  0.78223315  0.04097451     1.36900
C263        C  0.70285815  0.77846194  0.10807530     0.77000
O264        O  0.70715338  0.74206280  0.02602747    -0.61400
O265        O  0.74531231  0.79236100  0.01316773    -0.52300
C266        C  0.64307688  0.74966080  0.50410921     0.69700
O267        O  0.64608162  0.73720440  0.03092709    -0.47200
C268        C  0.69888270  0.83966403  0.03982591     0.74400
O269        O  0.67599133  0.75984656  0.09189180    -0.59100
O270        O  0.72294397  0.83783772  0.02751369    -0.49100
O271        O  0.72807306  0.79752913  0.08974965    -0.55500
C272        C  0.73491057  0.76126544  0.01153032     0.84600
O273        O  0.66836537  0.77765863  0.49531756    -0.57400
O274        O  0.67529735  0.81261886  0.05246601    -0.60700
In275      In  0.28534711  0.22082865  0.46659314     1.36900
C276        C  0.28418060  0.22715323  0.39912780     0.77000
O277        O  0.31015701  0.19142909  0.46452027    -0.61400
O278        O  0.25789202  0.16381789  0.47614533    -0.52300
C279        C  0.34006912  0.25748067  0.00842779     0.69700
O280        O  0.33964710  0.25901221  0.47585496    -0.47200
C281        C  0.25091054  0.24593750  0.49356960     0.74400
O282        O  0.30893909  0.24727778  0.41727422    -0.59100
O283        O  0.23917278  0.21445979  0.49412776    -0.49100
O284        O  0.25909207  0.20466858  0.41556286    -0.55500
C285        C  0.28438725  0.16322268  0.47117723     0.84600
O286        O  0.31203063  0.23280330  0.01824803    -0.57400
O287        O  0.27779148  0.26302919  0.47694796    -0.60700
In288      In  0.21716063  0.29888781  0.04461163     1.36900
C289        C  0.15862947  0.29562565  0.04220904     0.77000
O290        O  0.20086362  0.26847792  0.09350812    -0.61400
O291        O  0.24187431  0.31924926  0.09525722    -0.52300
C292        C  0.23967502  0.26380039  0.01280010     0.69700
O293        O  0.20912257  0.24994193  0.02138705    -0.47200
C294        C  0.24940347  0.35674174  0.01046712     0.74400
O295        O  0.16350384  0.27570733  0.02483001    -0.59100
O296        O  0.26046629  0.35268791  0.03832217    -0.49100
O297        O  0.18295197  0.31576305  0.06076802    -0.55500
C298        C  0.22168151  0.29293804  0.11167948     0.84600
O299        O  0.25777072  0.29425902  0.02123280    -0.57400
O300        O  0.22270789  0.33101676  0.99988750    -0.60700
In301      In  0.29886436  0.08521033  0.29272717     1.36900
C302        C  0.29467185  0.07527602  0.36012282     0.77000
O303        O  0.31966858  0.13983037  0.30112085    -0.61400
O304        O  0.27029347  0.11087609  0.28026288    -0.52300
C305        C  0.35018724  0.10549675  0.25000465     0.69700
O306        O  0.35214355  0.09961621  0.28115329    -0.47200
C307        C  0.26285868  0.02515135  0.26359025     0.74400
O308        O  0.32094361  0.08327777  0.34345315    -0.59100
O309        O  0.25081329  0.04365923  0.26768991    -0.49100
O310        O  0.27015261  0.07046761  0.34219872    -0.55500
C311        C  0.29384565  0.13926293  0.29063920     0.84600
O312        O  0.32274544  0.10282806  0.24175823    -0.57400
O313        O  0.29154582  0.03639721  0.27630867    -0.60700
In314      In  0.22024322  0.93257489  0.21793788     1.36900
C315        C  0.22669333  0.94015866  0.15032016     0.77000
O316        O  0.18618385  0.87725862  0.21277430    -0.61400
O317        O  0.16397945  0.90501969  0.22817880    -0.52300
C318        C  0.25134118  0.91440071  0.26167192     0.69700
O319        O  0.25822490  0.91850225  0.23021109    -0.47200
C320        C  0.24625317  0.99325157  0.24499007     0.74400
O321        O  0.24408300  0.93221257  0.16796755    -0.59100
O322        O  0.21472066  0.97323156  0.24327942    -0.49100
O323        O  0.20752333  0.94612879  0.16735035    -0.55500
C324        C  0.15979614  0.87663080  0.22088037     0.84600
O325        O  0.22808495  0.91908042  0.27043226    -0.57400
O326        O  0.26347824  0.98320091  0.23059144    -0.60700
In327      In  0.92458914  0.22865921  0.30008550     1.36900
C328        C  0.93084867  0.23475200  0.36778845     0.77000
O329        O  0.86916257  0.19382799  0.30157100    -0.61400
O330        O  0.89745815  0.17166142  0.28908913    -0.52300
C331        C  0.91152250  0.27268107  0.27122930     0.69700
O332        O  0.93952493  0.28208800  0.28507967    -0.47200
C333        C  0.98000098  0.24300554  0.26597419     0.74400
O334        O  0.92734004  0.25497339  0.34949919    -0.59100
O335        O  0.97925465  0.24484256  0.29788608    -0.49100
O336        O  0.93257466  0.21249658  0.35145425    -0.55500
C337        C  0.86867362  0.16737397  0.29405325     0.84600
O338        O  0.89084592  0.24135194  0.27242221    -0.57400
O339        O  0.95178035  0.23086340  0.25162972    -0.60700
In340      In  0.06900952  0.29883406  0.21402777     1.36900
C341        C  0.06278825  0.29758048  0.14698428     0.77000
O342        O  0.12260919  0.31746148  0.20351907    -0.61400
O343        O  0.09447537  0.26982693  0.22827323    -0.52300
C344        C  0.08550114  0.35637956  0.24509098     0.69700
O345        O  0.06042274  0.34155208  0.22546663    -0.47200
C346        C  0.01174916  0.25815286  0.24697092     0.74400
O347        O  0.06969002  0.32314941  0.16444890    -0.59100
O348        O  0.04002629  0.27211325  0.26148956    -0.49100
O349        O  0.05716659  0.27205882  0.16394155    -0.55500
C350        C  0.12253050  0.29256937  0.21617234     0.84600
O351        O  0.10199166  0.34212192  0.24787548    -0.57400
O352        O  0.01302752  0.26187746  0.21513825    -0.60700
In353      In  0.77531770  0.07804841  0.29693986     1.36900
C354        C  0.76799520  0.06899154  0.36413400     0.77000
O355        O  0.74687839  0.02115564  0.29750018    -0.61400
O356        O  0.77688725  0.04654292  0.25416061    -0.52300
C357        C  0.73351150  0.09153091  0.26380244     0.69700
O358        O  0.74075409  0.09866175  0.29481137    -0.47200
C359        C  0.83634134  0.13486146  0.29254270     0.74400
O360        O  0.74629242  0.06961926  0.34550972    -0.59100
O361        O  0.83291641  0.10617616  0.29013518    -0.49100
O362        O  0.79241470  0.07087144  0.34821049    -0.55500
C363        C  0.75552896  0.01875353  0.26774385     0.84600
O364        O  0.74748091  0.07759967  0.25009685    -0.57400
O365        O  0.80909869  0.13396830  0.29526797    -0.60700
In366      In  0.69736635  0.93068122  0.21401195     1.36900
C367        C  0.69794440  0.93751313  0.14678962     0.77000
O368        O  0.71934777  0.95867917  0.26323053    -0.61400
O369        O  0.73918410  0.98546400  0.21693857    -0.52300
C370        C  0.63941796  0.91421324  0.24352106     0.69700
O371        O  0.65630136  0.94091614  0.22618970    -0.47200
C372        C  0.70374575  0.87730277  0.21552802     0.74400
O373        O  0.67277772  0.93074018  0.16480035    -0.59100
O374        O  0.72573497  0.90480651  0.22911133    -0.49100
O375        O  0.72370801  0.94357898  0.16332872    -0.55500
C376        C  0.73860846  0.98669535  0.24897489     0.84600
O377        O  0.65167260  0.89573953  0.24472268    -0.57400
O378        O  0.67948767  0.87764264  0.20218720    -0.60700
In379      In  0.06971577  0.78573131  0.21745336     1.36900
C380        C  0.06152762  0.78014778  0.15021975     0.77000
O381        O  0.01935965  0.74285263  0.23016609    -0.61400
O382        O  0.02861658  0.79199165  0.24039796    -0.52300
C383        C  0.08367829  0.75138138  0.26135000     0.69700
O384        O  0.08068338  0.74536729  0.22971573    -0.47200
C385        C  0.12718032  0.84481375  0.22076009     0.74400
O386        O  0.06984713  0.76266920  0.16726734    -0.59100
O387        O  0.09974254  0.84167690  0.23007865    -0.49100
O388        O  0.05571415  0.79921349  0.16768304    -0.55500
C389        C  0.00880459  0.76035228  0.24287129     0.84600
O390        O  0.08093172  0.77593228  0.27004653    -0.57400
O391        O  0.12485380  0.81807943  0.21055519    -0.60700
In392      In  0.91649717  0.70746329  0.28907828     1.36900
C393        C  0.92639891  0.71125894  0.35605971     0.77000
O394        O  0.96567517  0.71543871  0.27444848    -0.61400
O395        O  0.95747223  0.75525894  0.26295594    -0.52300
C396        C  0.89764807  0.65516827  0.24811037     0.69700
O397        O  0.90278152  0.65403840  0.27955389    -0.47200
C398        C  0.86343003  0.71388853  0.28732935     0.74400
O399        O  0.91566614  0.68424623  0.33972174    -0.59100
O400        O  0.89179629  0.73699627  0.27648625    -0.49100
O401        O  0.93409452  0.73671755  0.33795995    -0.55500
C402        C  0.97658592  0.74375050  0.26066504     0.84600
O403        O  0.90012954  0.68229252  0.23842538    -0.57400
O404        O  0.86239832  0.68785342  0.29809031    -0.60700
In405      In  0.77664073  0.71583122  0.28928223     1.36900
C406        C  0.77044149  0.71891009  0.35602438     0.77000
O407        O  0.80622787  0.69232989  0.29989859    -0.61400
O408        O  0.83216075  0.74100326  0.27658009    -0.52300
C409        C  0.74366988  0.66454342  0.24704142     0.69700
O410        O  0.73555059  0.66283294  0.27804310    -0.47200
C411        C  0.75261857  0.75040061  0.26089094     0.74400
O412        O  0.75234940  0.69241735  0.33904746    -0.59100
O413        O  0.78408429  0.76366569  0.26440485    -0.49100
O414        O  0.79030241  0.74467180  0.33861050    -0.55500
C415        C  0.83338435  0.71614748  0.28785098     0.84600
O416        O  0.76913797  0.69241821  0.23816353    -0.57400
O417        O  0.73470027  0.72151380  0.27385105    -0.60700
In418      In  0.70085061  0.78761801  0.21221353     1.36900
C419        C  0.70354322  0.77975183  0.14537582     0.77000
O420        O  0.68192856  0.82082679  0.19944311    -0.61400
O421        O  0.72687640  0.84268099  0.22872729    -0.52300
C422        C  0.64650930  0.75277265  0.25120419     0.69700
O423        O  0.64693549  0.74574365  0.22024734    -0.47200
C424        C  0.73647023  0.76531842  0.24216950     0.74400
O425        O  0.67726904  0.76241431  0.16282191    -0.59100
O426        O  0.74973897  0.79636103  0.23551003    -0.49100
O427        O  0.72939664  0.79987866  0.16234333    -0.55500
C428        C  0.70469212  0.84643507  0.21465909     0.84600
O429        O  0.67359792  0.77823312  0.26160428    -0.57400
O430        O  0.70672799  0.74670835  0.23188458    -0.60700
In431      In  0.29184817  0.22639576  0.29442337     1.36900
C432        C  0.28562136  0.22852604  0.36175780     0.77000
O433        O  0.28418073  0.26706676  0.27626436    -0.61400
O434        O  0.24382723  0.21689938  0.26777789    -0.52300
C435        C  0.34735563  0.26062740  0.25777363     0.69700
O436        O  0.34403930  0.27123291  0.28620798    -0.47200
C437        C  0.29198626  0.16965758  0.29141258     0.74400
O438        O  0.31167492  0.24983111  0.34575646    -0.59100
O439        O  0.26787367  0.17151785  0.27920387    -0.49100
O440        O  0.26185659  0.20734000  0.34318568    -0.55500
C441        C  0.25546904  0.24807325  0.26365980     0.84600
O442        O  0.32198861  0.23325638  0.24785532    -0.57400
O443        O  0.31515800  0.19635558  0.30489656    -0.60700
In444      In  0.21252391  0.29556578  0.21590982     1.36900
C445        C  0.22043909  0.29235562  0.14907588     0.77000
O446        O  0.25569828  0.29193422  0.23296247    -0.61400
O447        O  0.20710513  0.24841977  0.24100589    -0.52300
C448        C  0.24348684  0.34914756  0.25639402     0.69700
O449        O  0.25083315  0.35033792  0.22523449    -0.47200
C450        C  0.15353692  0.29170059  0.21635862     0.74400
O451        O  0.23885066  0.31842904  0.16649501    -0.59100
O452        O  0.15655045  0.26853824  0.22949297    -0.49100
O453        O  0.19917759  0.26694977  0.16611013    -0.55500
C454        C  0.23860505  0.26262116  0.24516510     0.84600
O455        O  0.21993726  0.32051721  0.26646191    -0.57400
O456        O  0.17999123  0.31548117  0.20311355    -0.60700
C457        C  0.40106389  0.29550560  0.01901710    -0.26900
C458        C  0.36814367  0.27795951  0.03193061    -0.14900
C459        C  0.36263084  0.28015353  0.06689460     0.35700
C460        C  0.39040231  0.29823634  0.08851190    -0.26300
C461        C  0.42336613  0.31466386  0.07580234    -0.15600
C462        C  0.42886532  0.31347563  0.04046932     0.36800
N463        N  0.46189074  0.32880488  0.02548981    -0.89800
H464        H  0.40538720  0.29414663  0.99210867     0.17900
H465        H  0.38638162  0.29936798  0.11554951     0.17900
N466        N  0.32897870  0.26431059  0.08026516    -0.88800
H467        H  0.46384332  0.30962799  0.01408753     0.35200
H468        H  0.48095833  0.33952312  0.04361534     0.40300
H469        H  0.31756925  0.27629003  0.06920006     0.40000
H470        H  0.32945087  0.26825492  0.10652262     0.34900
C471        C  0.39057041  0.31264480  0.22884841    -0.26900
C472        C  0.37820505  0.27880951  0.23718460    -0.14900
C473        C  0.39354268  0.26222335  0.22297131     0.35700
C474        C  0.41961827  0.27944889  0.19933047    -0.26300
C475        C  0.43103864  0.31281430  0.18968095    -0.15600
C476        C  0.41635851  0.32967007  0.20463239     0.36800
N477        N  0.42620118  0.36317193  0.19381720    -0.89800
H478        H  0.37857763  0.32512713  0.23964929     0.17900
H479        H  0.43099878  0.26647683  0.18826932     0.17900
N480        N  0.38350848  0.22812605  0.23179784    -0.88800
H481        H  0.41291939  0.37183956  0.20730716     0.35200
H482        H  0.41928954  0.36179616  0.16824634     0.40300
H483        H  0.36578810  0.21851890  0.25141731     0.40000
H484        H  0.40464725  0.22874665  0.24162233     0.34900
C485        C  0.57920191  0.45648029  0.09692666    -0.26900
C486        C  0.59767204  0.46986248  0.12713237    -0.14900
C487        C  0.58447550  0.45087818  0.15748560     0.35700
C488        C  0.55307975  0.42067442  0.15737979    -0.26300
C489        C  0.53413066  0.40759615  0.12736183    -0.15600
C490        C  0.54861620  0.42531707  0.09650306     0.36800
N491        N  0.53396758  0.41095608  0.06415514    -0.89800
H492        H  0.58944199  0.46838719  0.07265401     0.17900
H493        H  0.54467430  0.40639206  0.18088814     0.17900
N494        N  0.60373290  0.46115565  0.18834910    -0.88800
H495        H  0.55148513  0.40845872  0.04996892     0.35200
H496        H  0.52925975  0.42776666  0.05130930     0.40300
H497        H  0.58953885  0.46393852  0.20716418     0.40000
H498        H  0.60759326  0.44191027  0.19598802     0.34900
C499        C  0.70873428  0.61256382  0.16631673    -0.26900
C500        C  0.68963673  0.57987484  0.17982618    -0.14900
C501        C  0.68707974  0.57518934  0.21529865     0.35700
C502        C  0.70455142  0.60326235  0.23675472    -0.26300
C503        C  0.72479723  0.63601467  0.22328150    -0.15600
C504        C  0.72626356  0.64059373  0.18747574     0.36800
N505        N  0.74486541  0.67322521  0.17171846    -0.89800
H506        H  0.71042186  0.61632734  0.13894763     0.17900
H507        H  0.70292942  0.59926103  0.26406670     0.17900
N508        N  0.66788685  0.54192928  0.22955470    -0.88800
H509        H  0.77045148  0.68397366  0.17697067     0.35200
H510        H  0.73661329  0.68843644  0.18172759     0.40300
H511        H  0.64955815  0.54104470  0.24555640     0.40000
H512        H  0.68402198  0.53785716  0.24445182     0.34900
C513        C  0.74570591  0.61540530  0.03683526    -0.26900
C514        C  0.72944052  0.63155532  0.02492521    -0.14900
C515        C  0.69597114  0.61962950  0.03473762     0.35700
C516        C  0.67924253  0.59147481  0.05646557    -0.26300
C517        C  0.69555719  0.57538040  0.06870947    -0.15600
C518        C  0.72889152  0.58717780  0.05832458     0.36800
N519        N  0.74543072  0.57003497  0.06894056    -0.89800
H520        H  0.77137185  0.62446492  0.02905870     0.17900
H521        H  0.65388677  0.58289835  0.06491861     0.17900
N522        N  0.67957050  0.63686654  0.02347314    -0.88800
H523        H  0.76791435  0.58744416  0.08111154     0.35200
H524        H  0.75127668  0.56120359  0.04722363     0.40300
H525        H  0.69259084  0.66109831  0.03396947     0.40000
H526        H  0.65500060  0.62492804  0.03300345     0.34900
C527        C  0.75393052  0.48778373  0.11022697    -0.26900
C528        C  0.78015771  0.50857783  0.13258140    -0.14900
C529        C  0.77559606  0.52825301  0.15656289     0.35700
C530        C  0.74571015  0.52836519  0.15657197    -0.26300
C531        C  0.72021318  0.50907360  0.13301207    -0.15600
C532        C  0.72404162  0.48811115  0.11004478     0.36800
N533        N  0.69864086  0.46885021  0.08514772    -0.89800
H534        H  0.75743775  0.47280213  0.09154846     0.17900
H535        H  0.74274909  0.54426253  0.17453958     0.17900
N536        N  0.80139400  0.54837294  0.18078004    -0.88800
H537        H  0.69094103  0.44346816  0.08824447     0.35200
H538        H  0.70951017  0.47662744  0.06099626     0.40300
H539        H  0.80836430  0.57353947  0.17751481     0.40000
H540        H  0.79124181  0.54072549  0.20521606     0.34900
C541        C  0.84604822  0.57546180  0.04951738    -0.26900
C542        C  0.86936207  0.56662844  0.05924323    -0.14900
C543        C  0.90161084  0.58342795  0.04395895     0.35700
C544        C  0.91049975  0.61024895  0.02106401    -0.26300
C545        C  0.88797258  0.62075934  0.01357606    -0.15600
C546        C  0.85489971  0.60215134  0.02671534     0.36800
N547        N  0.83059146  0.61082808  0.01730794    -0.89800
H548        H  0.82100974  0.56202616  0.06054482     0.17900
H549        H  0.93574875  0.62423420  0.01061091     0.17900
N550        N  0.92577877  0.57445857  0.05295915    -0.88800
H551        H  0.80762727  0.59489241  0.02944395     0.35200
H552        H  0.82614605  0.60648214  0.99117803     0.40300
H553        H  0.93188455  0.58043479  0.07864079     0.40000
H554        H  0.94809321  0.58902228  0.03919267     0.34900
C555        C  0.87558664  0.57060675  0.20997880    -0.26900
C556        C  0.88077971  0.57881485  0.17519182    -0.14900
C557        C  0.89258351  0.61224174  0.16475842     0.35700
C558        C  0.89736511  0.63634772  0.18911121    -0.26300
C559        C  0.89116778  0.62804010  0.22384204    -0.15600
C560        C  0.88057946  0.59484333  0.23447862     0.36800
N561        N  0.87421170  0.58558895  0.26985894    -0.89800
H562        H  0.86601392  0.54479077  0.21788937     0.17900
H563        H  0.90633670  0.66195271  0.18086884     0.17900
N564        N  0.89961656  0.62156978  0.12941683    -0.88800
H565        H  0.86713389  0.56041151  0.27333389     0.35200
H566        H  0.85358164  0.58718486  0.27725217     0.40300
H567        H  0.91937065  0.61849763  0.12209345     0.40000
H568        H  0.90806569  0.64710176  0.12594816     0.34900
C569        C  0.86147637  0.30669820  0.23128078    -0.26900
C570        C  0.88508502  0.33039970  0.20845570    -0.14900
C571        C  0.91902332  0.33964832  0.21070252     0.35700
C572        C  0.92799926  0.32239940  0.23375185    -0.26300
C573        C  0.90338127  0.29567830  0.25368269    -0.15600
C574        C  0.87006229  0.28872794  0.25351427     0.36800
N575        N  0.84485877  0.26268260  0.27509606    -0.89800
H576        H  0.83586149  0.30111065  0.23053866     0.17900
H577        H  0.95370737  0.32816146  0.23435674     0.17900
N578        N  0.94394133  0.36575227  0.18895953    -0.88800
H579        H  0.82156002  0.26041543  0.27151651     0.35200
H580        H  0.85188291  0.27020697  0.30034415     0.40300
H581        H  0.93792523  0.35777320  0.16372695     0.40000
H582        H  0.96765490  0.36930102  0.19362201     0.34900
C583        C  0.87665690  0.31769788  0.05710634    -0.26900
C584        C  0.88406923  0.31675436  0.09161297    -0.14900
C585        C  0.89725792  0.29678825  0.10153817     0.35700
C586        C  0.90242544  0.27810308  0.07711432    -0.26300
C587        C  0.89486435  0.27883688  0.04263047    -0.15600
C588        C  0.88164768  0.29878832  0.03253100     0.36800
N589        N  0.87273432  0.29936804  0.99759108    -0.89800
H590        H  0.86569674  0.33224617  0.04944673     0.17900
H591        H  0.91283486  0.26318049  0.08528388     0.17900
N592        N  0.90602951  0.29572062  0.13629736    -0.88800
H593        H  0.86497299  0.31741274  0.49312377     0.35200
H594        H  0.85375105  0.27706077  0.48825352     0.40300
H595        H  0.93156627  0.30375886  0.13723058     0.40000
H596        H  0.89220448  0.27061235  0.14458809     0.34900
C597        C  0.84194803  0.40931960  0.11011152    -0.26900
C598        C  0.86495866  0.40868555  0.13288499    -0.14900
C599        C  0.89055231  0.44019577  0.14650375     0.35700
C600        C  0.88770094  0.46867363  0.14336179    -0.26300
C601        C  0.86141049  0.46776016  0.12472088    -0.15600
C602        C  0.84005683  0.43824514  0.10559345     0.36800
N603        N  0.81567721  0.43723442  0.08236024    -0.89800
H604        H  0.82482253  0.38681893  0.09586563     0.17900
H605        H  0.90739692  0.49198131  0.15444619     0.17900
N606        N  0.92146541  0.44554711  0.16033238    -0.88800
H607        H  0.80073461  0.41317025  0.07185322     0.35200
H608        H  0.82880980  0.45344948  0.06206685     0.40300
H609        H  0.92585026  0.42665141  0.15302504     0.40000
H610        H  0.92058620  0.44674011  0.18685170     0.34900
C611        C  0.75009316  0.22158728  0.15873766    -0.26900
C612        C  0.72491320  0.21874166  0.13714321    -0.14900
C613        C  0.73116126  0.24717407  0.11788600     0.35700
C614        C  0.76233048  0.27782595  0.12136121    -0.26300
C615        C  0.78744292  0.28072412  0.14362624    -0.15600
C616        C  0.78075053  0.25195339  0.16254541     0.36800
N617        N  0.80428566  0.25319454  0.18671118    -0.89800
H618        H  0.74587974  0.20018265  0.17371270     0.17900
H619        H  0.76727893  0.29926600  0.10589387     0.17900
N620        N  0.70639452  0.24470061  0.09428992    -0.88800
H621        H  0.81043020  0.23545106  0.17957175     0.35200
H622        H  0.79236194  0.24588438  0.21043941     0.40300
H623        H  0.70336551  0.22762797  0.07530289     0.40000
H624        H  0.71492728  0.26787915  0.08220370     0.34900
C625        C  0.68120473  0.12366217  0.04629416    -0.26900
C626        C  0.68476451  0.11905433  0.08114444    -0.14900
C627        C  0.70376626  0.10484125  0.09072527     0.35700
C628        C  0.72066154  0.09778465  0.06606653    -0.26300
C629        C  0.71814839  0.10322309  0.03136189    -0.15600
C630        C  0.69720407  0.11525315  0.02115398     0.36800
N631        N  0.69275593  0.11956162  0.98566969    -0.89800
H632        H  0.66646143  0.13441424  0.03870839     0.17900
H633        H  0.73557201  0.08741699  0.07435359     0.17900
N634        N  0.70539652  0.09661526  0.12551858    -0.88800
H635        H  0.67937441  0.13491722  0.48660719     0.35200
H636        H  0.68061936  0.10038476  0.47839644     0.40300
H637        H  0.73068606  0.10952013  0.13292280     0.40000
H638        H  0.69604795  0.07072620  0.12704876     0.34900
C639        C  0.67451795  0.08909923  0.19622559    -0.26900
C640        C  0.68074067  0.12192452  0.19829156    -0.14900
C641        C  0.69969485  0.14271169  0.22600955     0.35700
C642        C  0.71491344  0.13130801  0.24875446    -0.26300
C643        C  0.71165613  0.09982112  0.24430201    -0.15600
C644        C  0.68983070  0.07780166  0.21892020     0.36800
N645        N  0.68373036  0.04424928  0.21604040    -0.89800
H646        H  0.65861229  0.07265425  0.17597734     0.17900
H647        H  0.73079170  0.14789028  0.26894576     0.17900
N648        N  0.70383544  0.17513975  0.23204291    -0.88800
H649        H  0.66712473  0.03129757  0.19598250     0.35200
H650        H  0.67162065  0.03118728  0.23834704     0.40300
H651        H  0.69173937  0.18112601  0.21351136     0.40000
H652        H  0.72951886  0.19344745  0.23074478     0.34900
C653        C  0.53972759  0.12153879  0.14709030    -0.26900
C654        C  0.53861679  0.14454888  0.12461436    -0.14900
C655        C  0.56566253  0.16211238  0.10145282     0.35700
C656        C  0.59467386  0.16043976  0.10483356    -0.26300
C657        C  0.59765342  0.14105313  0.13060542    -0.15600
C658        C  0.56833799  0.11902108  0.14973243     0.36800
N659        N  0.56617760  0.09252269  0.17028338    -0.89800
H660        H  0.51808305  0.10419626  0.16212671     0.17900
H661        H  0.61547889  0.17517908  0.08750281     0.17900
N662        N  0.56400590  0.18205528  0.07454024    -0.88800
H663        H  0.54647930  0.06946261  0.16105245     0.35200
H664        H  0.56011929  0.09548819  0.19514168     0.40300
H665        H  0.56678514  0.17274804  0.05138198     0.40000
H666        H  0.58435265  0.20685001  0.07721012     0.34900
C667        C  0.51463695  0.28091647  0.14249315    -0.26900
C668        C  0.49247510  0.28397256  0.12076090    -0.14900
C669        C  0.47336805  0.25837225  0.09694524     0.35700
C670        C  0.47576218  0.22968412  0.09601541    -0.26300
C671        C  0.49648689  0.22563165  0.11893287    -0.15600
C672        C  0.51651306  0.25176579  0.14203448     0.36800
N673        N  0.53727804  0.24805120  0.16629190    -0.89800
H674        H  0.52931388  0.30047764  0.16100979     0.17900
H675        H  0.46060165  0.21004958  0.07774921     0.17900
N676        N  0.45149626  0.26139757  0.07359818    -0.88800
H677        H  0.52947381  0.24989674  0.19070778     0.35200
H678        H  0.56205943  0.26815889  0.16293238     0.40300
H679        H  0.42702910  0.24081384  0.07735389     0.40000
H680        H  0.45887213  0.25993487  0.04885174     0.34900
C681        C  0.40912899  0.12153148  0.23645494    -0.26900
C682        C  0.37734521  0.11381660  0.22493123    -0.14900
C683        C  0.37174130  0.11338590  0.18947814     0.35700
C684        C  0.39800821  0.12117077  0.16672005    -0.26300
C685        C  0.43009819  0.12972020  0.17806925    -0.15600
C686        C  0.43553769  0.12978215  0.21352694     0.36800
N687        N  0.46797853  0.13931291  0.22665856    -0.89800
H688        H  0.41380793  0.12182930  0.26352984     0.17900
H689        H  0.39297638  0.12012568  0.13973469     0.17900
N690        N  0.33936343  0.10478742  0.17644999    -0.88800
H691        H  0.46531694  0.11922688  0.24127248     0.35200
H692        H  0.47604400  0.16003285  0.24275011     0.40300
H693        H  0.32248036  0.07923073  0.18176174     0.40000
H694        H  0.33999970  0.10723112  0.14992816     0.34900
C695        C  0.43912473  0.14663642  0.03501978    -0.26900
C696        C  0.43509599  0.12602459  0.06295372    -0.14900
C697        C  0.40461192  0.09516649  0.06748914     0.35700
C698        C  0.37800724  0.08586260  0.04477336    -0.26300
C699        C  0.38142827  0.10683406  0.01731745    -0.15600
C700        C  0.41265401  0.13731130  0.01204463     0.36800
N701        N  0.41757911  0.16011660  0.98491903    -0.89800
H702        H  0.46248613  0.17070967  0.03185565     0.17900
H703        H  0.35427697  0.06239944  0.04904440     0.17900
N704        N  0.40035542  0.07362125  0.09565299    -0.88800
H705        H  0.39948467  0.16678542  0.98709001     0.35200
H706        H  0.41410043  0.14767873  0.96177289     0.40300
H707        H  0.39471561  0.05034675  0.08589134     0.40000
H708        H  0.37956760  0.06948448  0.10982761     0.34900
C709        C  0.55394273  0.88033637  0.46166198    -0.26900
C710        C  0.56295173  0.88685069  0.42706520    -0.14900
C711        C  0.59697901  0.90104651  0.41792973     0.35700
C712        C  0.62086084  0.90692256  0.44286879    -0.26300
C713        C  0.61200449  0.89971664  0.47736460    -0.15600
C714        C  0.57814936  0.88693059  0.48701700     0.36800
N715        N  0.56819185  0.87988686  0.52215729    -0.89800
H716        H  0.52779769  0.86930775  0.46885474     0.17900
H717        H  0.64678385  0.91760536  0.43498255     0.17900
N718        N  0.60774952  0.91026106  0.38336033    -0.88800
H719        H  0.54515048  0.87825471  0.02452084     0.35200
H720        H  0.58377229  0.91099658  0.03274810     0.40300
H721        H  0.61892457  0.89695557  0.37546179     0.40000
H722        H  0.62625251  0.93598011  0.38280388     0.34900
C723        C  0.60874320  0.93126393  0.28188265    -0.26900
C724        C  0.60889702  0.90593501  0.26277361    -0.14900
C725        C  0.58152527  0.87245764  0.26538635     0.35700
C726        C  0.55523527  0.86463566  0.28806248    -0.26300
C727        C  0.55662119  0.88925235  0.30965296    -0.15600
C728        C  0.58328067  0.92329612  0.30586887     0.36800
N729        N  0.58593687  0.95017588  0.32630437    -0.89800
H730        H  0.62975112  0.95712016  0.27988133     0.17900
H731        H  0.53409219  0.83890407  0.28959350     0.17900
N732        N  0.58059687  0.84626689  0.24543392    -0.88800
H733        H  0.60824265  0.96059070  0.34032608     0.35200
H734        H  0.56634799  0.94139281  0.34389567     0.40300
H735        H  0.55861529  0.83502785  0.23078395     0.40000
H736        H  0.57909928  0.82795708  0.26209742     0.34900
C737        C  0.47901772  0.73496829  0.39253441    -0.26900
C738        C  0.50006026  0.73087063  0.37025030    -0.14900
C739        C  0.52015079  0.75653596  0.34665533     0.35700
C740        C  0.51990102  0.78643745  0.34683311    -0.26300
C741        C  0.49924773  0.79092832  0.36927164    -0.15600
C742        C  0.47859568  0.76488038  0.39238457     0.36800
N743        N  0.45862485  0.76937586  0.41693983    -0.89800
H744        H  0.46383420  0.71541763  0.41099725     0.17900
H745        H  0.53620513  0.80637022  0.32944780     0.17900
N746        N  0.54059491  0.75208234  0.32246756    -0.88800
H747        H  0.46628249  0.76689518  0.44123677     0.35200
H748        H  0.43351836  0.74995563  0.41370417     0.40300
H749        H  0.55411565  0.77351356  0.30709178     0.40000
H750        H  0.52432453  0.73232005  0.30632247     0.34900
C751        C  0.57117907  0.73162743  0.44512995    -0.26900
C752        C  0.55826537  0.69765710  0.43672209    -0.14900
C753        C  0.57196751  0.68020734  0.45259495     0.35700
C754        C  0.59836832  0.69725086  0.47623358    -0.26300
C755        C  0.61260293  0.73174465  0.48273014    -0.15600
C756        C  0.59864833  0.74907930  0.46732875     0.36800
N757        N  0.61290478  0.78395889  0.97597408    -0.89800
H758        H  0.56037915  0.74497574  0.43355288     0.17900
H759        H  0.60928126  0.68411201  0.48806212     0.17900
N760        N  0.56039984  0.64593689  0.44339667    -0.88800
H761        H  0.59829292  0.79272349  0.96542924     0.35200
H762        H  0.63657281  0.79811097  0.96450860     0.40300
H763        H  0.56678442  0.64599338  0.41785460     0.40000
H764        H  0.57304975  0.63685032  0.45745479     0.34900
C765        C  0.55776727  0.69405546  0.28662608    -0.26900
C766        C  0.56460465  0.69632826  0.32170649    -0.14900
C767        C  0.59826476  0.71565522  0.33283877     0.35700
C768        C  0.62417757  0.73365719  0.30927482    -0.26300
C769        C  0.61754936  0.73236410  0.27430529    -0.15600
C770        C  0.58396342  0.71178910  0.26268068     0.36800
N771        N  0.57632658  0.71007591  0.22699395    -0.89800
H772        H  0.53188112  0.67940556  0.27801297     0.17900
H773        H  0.64982994  0.74862536  0.31853899     0.17900
N774        N  0.60637978  0.71678597  0.36820254    -0.88800
H775        H  0.55030422  0.69567233  0.22308539     0.35200
H776        H  0.58614126  0.69704311  0.21503799     0.40300
H777        H  0.62274321  0.70795546  0.37084823     0.40000
H778        H  0.61913292  0.74198591  0.37605503     0.34900
C779        C  0.31699100  0.91029349  0.45477526    -0.26900
C780        C  0.30096501  0.87581749  0.44690564    -0.14900
C781        C  0.27195205  0.85234194  0.46538154     0.35700
C782        C  0.25808936  0.86389010  0.48916997    -0.26300
C783        C  0.27285101  0.89848134  0.49559621    -0.15600
C784        C  0.30332565  0.92190218  0.47921623     0.36800
N785        N  0.31906791  0.95741382  0.48581809    -0.89800
H786        H  0.33950535  0.92826693  0.44091799     0.17900
H787        H  0.23498304  0.84569144  0.50208251     0.17900
N788        N  0.25615877  0.81663604  0.46080508    -0.88800
H789        H  0.34042380  0.97129292  0.47051661     0.35200
H790        H  0.33317424  0.95984436  0.01436218     0.40300
H791        H  0.27432451  0.81015267  0.46390217     0.40000
H792        H  0.24637917  0.81035913  0.43621604     0.34900
C793        C  0.28423421  0.89832622  0.34372743    -0.26900
C794        C  0.30153505  0.88333659  0.33138305    -0.14900
C795        C  0.30275873  0.87927002  0.29576915     0.35700
C796        C  0.28668713  0.89007072  0.27368700    -0.26300
C797        C  0.26894463  0.90457182  0.28610369    -0.15600
C798        C  0.26802232  0.90896523  0.32154789     0.36800
N799        N  0.25086254  0.92437159  0.33523308    -0.89800
H800        H  0.28303940  0.90159152  0.37091349     0.17900
H801        H  0.28746123  0.88633752  0.24655143     0.17900
N802        N  0.31866131  0.86294645  0.28119363    -0.88800
H803        H  0.26823880  0.94562513  0.34912187     0.35200
H804        H  0.23238532  0.90725228  0.35212384     0.40300
H805        H  0.30919115  0.83943425  0.29282905     0.40000
H806        H  0.34454093  0.87776610  0.28546383     0.34900
C807        C  0.43827358  0.86468180  0.40840861    -0.26900
C808        C  0.45192471  0.86602158  0.37602344    -0.14900
C809        C  0.43113697  0.86045638  0.34739817     0.35700
C810        C  0.40040024  0.85877853  0.35128549    -0.26300
C811        C  0.38809528  0.86043867  0.38348110    -0.15600
C812        C  0.40632814  0.86056510  0.41251005     0.36800
N813        N  0.39166354  0.85410211  0.44594522    -0.89800
H814        H  0.45128573  0.86421859  0.43097623     0.17900
H815        H  0.38531892  0.85460574  0.32873654     0.17900
N816        N  0.44000903  0.85452592  0.31438727    -0.88800
H817        H  0.40824428  0.85489747  0.46438582     0.35200
H818        H  0.37068787  0.82946986  0.44609446     0.40300
H819        H  0.44091974  0.87241269  0.29751184     0.40000
H820        H  0.42095551  0.83059875  0.30627686     0.34900
C821        C  0.20303531  0.74592995  0.36261677    -0.26900
C822        C  0.19758365  0.72029003  0.38535205    -0.14900
C823        C  0.22447449  0.72435737  0.40558013     0.35700
C824        C  0.25615765  0.75458866  0.40320553    -0.26300
C825        C  0.26113278  0.78087529  0.38146952    -0.15600
C826        C  0.23446739  0.77603681  0.36028301     0.36800
N827        N  0.23937554  0.80166680  0.33635438    -0.89800
H828        H  0.18255412  0.74245036  0.34654594     0.17900
H829        H  0.27650889  0.75836408  0.41964525     0.17900
N830        N  0.21916521  0.69848371  0.42938570    -0.88800
H831        H  0.21703839  0.79452199  0.32335338     0.35200
H832        H  0.25648681  0.80345585  0.31810245     0.40300
H833        H  0.20194250  0.69656190  0.44765233     0.40000
H834        H  0.24145514  0.70545823  0.44237551     0.34900
C835        C  0.12715496  0.71562810  0.46231636    -0.26900
C836        C  0.10171712  0.68492672  0.44861322    -0.14900
C837        C  0.06803674  0.67134288  0.45909182     0.35700
C838        C  0.06043521  0.68984515  0.48189930    -0.26300
C839        C  0.08582168  0.72180679  0.49356911    -0.15600
C840        C  0.11964429  0.73422857  0.48455638     0.36800
N841        N  0.15137477  0.77342223  0.98675707    -0.89800
H842        H  0.15305355  0.72576307  0.45461977     0.17900
H843        H  0.03448755  0.68026973  0.48893600     0.17900
N844        N  0.04162420  0.63982741  0.44534339    -0.88800
H845        H  0.17383134  0.78043693  0.97407239     0.35200
H846        H  0.15616381  0.77339671  0.01277704     0.40300
H847        H  0.04028514  0.64322427  0.41917702     0.40000
H848        H  0.01833545  0.63345221  0.45561059     0.34900
C849        C  0.08777364  0.71053649  0.34376500    -0.26900
C850        C  0.10319495  0.69329485  0.33266775    -0.14900
C851        C  0.11201585  0.69492190  0.29807798     0.35700
C852        C  0.10466606  0.71340478  0.27510293    -0.26300
C853        C  0.08961292  0.73107462  0.28622526    -0.15600
C854        C  0.08057739  0.72918087  0.32090101     0.36800
N855        N  0.06377674  0.74577761  0.33273913    -0.89800
H856        H  0.08109388  0.70920555  0.37041086     0.17900
H857        H  0.11166490  0.71486617  0.24856542     0.17900
N858        N  0.12942975  0.67882267  0.28667027    -0.88800
H859        H  0.05940846  0.74228187  0.35897150     0.35200
H860        H  0.04010780  0.73403833  0.32108985     0.40300
H861        H  0.13420412  0.68252845  0.26051390     0.40000
H862        H  0.15289100  0.69073719  0.29875272     0.34900
C863        C  0.26105955  0.42562346  0.44945399    -0.26900
C864        C  0.29496749  0.44021884  0.44016911    -0.14900
C865        C  0.31380722  0.42770678  0.45524553     0.35700
C866        C  0.29848368  0.40126392  0.47916253    -0.26300
C867        C  0.26442987  0.38652245  0.48786289    -0.15600
C868        C  0.24578260  0.39969983  0.47362757     0.36800
N869        N  0.21142129  0.38762954  0.48299019    -0.89800
H870        H  0.24588649  0.43419050  0.43780321     0.17900
H871        H  0.31279411  0.39099994  0.48957044     0.17900
N872        N  0.34769217  0.43999234  0.44464813    -0.88800
H873        H  0.21056940  0.40831408  0.49191624     0.35200
H874        H  0.20456910  0.37175732  0.00382576     0.40300
H875        H  0.34872873  0.41970305  0.43485038     0.40000
H876        H  0.36317348  0.44896816  0.46615404     0.34900
C877        C  0.29830495  0.43857480  0.29151003    -0.26900
C878        C  0.29399517  0.43238142  0.32671771    -0.14900
C879        C  0.27413402  0.39875122  0.33850480     0.35700
C880        C  0.25773236  0.37232309  0.31497388    -0.26300
C881        C  0.26128052  0.37843861  0.27975735    -0.15600
C882        C  0.28201822  0.41199842  0.26785381     0.36800
N883        N  0.28594658  0.41914673  0.23193721    -0.89800
H884        H  0.31349307  0.46435963  0.28242807     0.17900
H885        H  0.24244741  0.34663303  0.32429884     0.17900
N886        N  0.27120734  0.39140162  0.37435832    -0.88800
H887        H  0.30251938  0.44494861  0.22753196     0.35200
H888        H  0.26253603  0.41325827  0.22242531     0.40300
H889        H  0.29507168  0.39801986  0.38312482     0.40000
H890        H  0.25532323  0.36551526  0.37884852     0.34900
C891        C  0.41287060  0.54758310  0.35970967    -0.26900
C892        C  0.38668280  0.54519461  0.37974239    -0.14900
C893        C  0.39492385  0.57183353  0.40268111     0.35700
C894        C  0.42686328  0.60141952  0.40164481    -0.26300
C895        C  0.45182938  0.60557086  0.37851697    -0.15600
C896        C  0.44551706  0.57680069  0.35978734     0.36800
N897        N  0.47231733  0.57612663  0.34271031    -0.89800
H898        H  0.40872053  0.52632558  0.34481633     0.17900
H899        H  0.43188440  0.62187355  0.41862095     0.17900
N900        N  0.37071610  0.56919352  0.42695136    -0.88800
H901        H  0.46350216  0.55296952  0.33063617     0.35200
H902        H  0.48938387  0.57831678  0.36134232     0.40300
H903        H  0.38086109  0.57190522  0.45132870     0.40000
H904        H  0.36701083  0.58921039  0.42278514     0.34900
C905        C  0.09589968  0.54143654  0.35756561    -0.26900
C906        C  0.11579918  0.53624582  0.38072506    -0.14900
C907        C  0.12980750  0.55871327  0.40852206     0.35700
C908        C  0.12741868  0.58748041  0.41005806    -0.26300
C909        C  0.11131648  0.59512596  0.38437920    -0.15600
C910        C  0.09302720  0.56999359  0.35936651     0.36800
N911        N  0.07058033  0.57209963  0.33619446    -0.89800
H912        H  0.08203833  0.52352920  0.33767798     0.17900
H913        H  0.13997977  0.60509610  0.43076966     0.17900
N914        N  0.14757704  0.55304355  0.43486148    -0.88800
H915        H  0.04648172  0.55081516  0.33966907     0.35200
H916        H  0.07837201  0.57151559  0.31137253     0.40300
H917        H  0.13577449  0.55125538  0.45806919     0.40000
H918        H  0.17212052  0.57406312  0.43593913     0.34900
C919        C  0.21488894  0.49861033  0.40466053    -0.26900
C920        C  0.20396638  0.50470401  0.37376169    -0.14900
C921        C  0.22360088  0.51138710  0.34398420     0.35700
C922        C  0.25280304  0.50986607  0.34564388    -0.26300
C923        C  0.26268430  0.50203884  0.37626789    -0.15600
C924        C  0.24449623  0.49788045  0.40633275     0.36800
N925        N  0.25612862  0.49281354  0.43835736    -0.89800
H926        H  0.19974977  0.49356738  0.42738328     0.17900
H927        H  0.26739259  0.51393658  0.32271290     0.17900
N928        N  0.21467595  0.51947439  0.31183237    -0.88800
H929        H  0.23975405  0.48997216  0.45804087     0.35200
H930        H  0.27933729  0.51463727  0.44365901     0.40300
H931        H  0.19233617  0.51942161  0.31343302     0.40000
H932        H  0.21062339  0.50080712  0.29436543     0.34900
C933        C  0.11640102  0.44051334  0.46365738    -0.26900
C934        C  0.11003555  0.43174954  0.42909220    -0.14900
C935        C  0.09848563  0.39826643  0.41918494     0.35700
C936        C  0.09437820  0.37455262  0.44382960    -0.26300
C937        C  0.10103635  0.38322569  0.47836302    -0.15600
C938        C  0.11223279  0.41663740  0.48843966     0.36800
N939        N  0.11994882  0.42640438  0.52353105    -0.89800
H940        H  0.12577385  0.46635310  0.47116416     0.17900
H941        H  0.08518085  0.34883442  0.43600311     0.17900
N942        N  0.09044068  0.38824406  0.38417382    -0.88800
H943        H  0.12762324  0.45176945  0.52661905     0.35200
H944        H  0.14285307  0.42185824  0.02993478     0.40300
H945        H  0.06970673  0.39005236  0.37775205     0.40000
H946        H  0.08292660  0.36295218  0.38103034     0.34900
C947        C  0.13504954  0.43440335  0.29903311    -0.26900
C948        C  0.10947105  0.43817056  0.31258797    -0.14900
C949        C  0.07607973  0.41709057  0.30098868     0.35700
C950        C  0.06892581  0.39178516  0.27687151    -0.26300
C951        C  0.09444584  0.38700638  0.26476355    -0.15600
C952        C  0.12803871  0.40939977  0.27498319     0.36800
N953        N  0.15484005  0.40618638  0.26143401    -0.89800
H954        H  0.16058870  0.45048021  0.30801674     0.17900
H955        H  0.04311445  0.37451019  0.26907212     0.17900
N956        N  0.04941439  0.42031902  0.31485949    -0.88800
H957        H  0.17802372  0.42444521  0.27184269     0.35200
H958        H  0.15631266  0.41114617  0.23530458     0.40300
H959        H  0.04742160  0.41455075  0.34084439     0.40000
H960        H  0.02634618  0.40263338  0.30390679     0.34900
C961        C  0.12698213  0.50935843  0.87709801     0.85900
C962        C  0.11344359  0.48389879  0.90696652    -0.54300
C963        C  0.12149314  0.45967688  0.90478224     0.08900
C964        C  0.14247693  0.46318518  0.87342052     0.19800
C965        C  0.16522540  0.52340424  0.87616604    -0.55000
C966        C  0.17295699  0.49906411  0.87458400     0.09000
C967        C  0.11360495  0.48706716  0.84460068    -0.54600
C968        C  0.12184568  0.46288214  0.84293546     0.09500
H969        H  0.09879238  0.48495449  0.92784911     0.14000
H970        H  0.14960205  0.44388554  0.87242818    -0.00200
H971        H  0.18444600  0.55010577  0.87714488     0.14300
H972        H  0.10046385  0.49064241  0.82390010     0.14100
C973        C  0.35383970  0.51491458  0.88000969     0.85900
C974        C  0.34493832  0.49451449  0.91348152    -0.54300
C975        C  0.31230609  0.46788386  0.91536737     0.08900
C976        C  0.29141719  0.46477446  0.88364690     0.19800
C977        C  0.34352692  0.48789979  0.85175779    -0.55000
C978        C  0.31078723  0.46157012  0.85382214     0.09000
C979        C  0.32780886  0.52544453  0.87674637    -0.54600
C980        C  0.29542980  0.49939108  0.87911284     0.09500
H981        H  0.36307916  0.50102253  0.93380937     0.14000
H982        H  0.26458298  0.44417380  0.88459679    -0.00200
H983        H  0.35983778  0.48856430  0.83187829     0.14300
H984        H  0.33442638  0.55142344  0.87351848     0.14100
C985        C  0.12049135  0.63204255  0.88213450     0.85900
C986        C  0.15858288  0.65916978  0.88112688    -0.54300
C987        C  0.16591702  0.69161330  0.88260833     0.08900
C988        C  0.13465317  0.69423291  0.88468059     0.19800
C989        C  0.10724781  0.64037729  0.91439098    -0.55000
C990        C  0.11485151  0.67302978  0.91568699     0.09000
C991        C  0.10626779  0.64238159  0.85188703    -0.54600
C992        C  0.11358757  0.67484610  0.85379067     0.09500
H993        H  0.17797832  0.65310938  0.87844343     0.14000
H994        H  0.14056676  0.72066078  0.88550780    -0.00200
H995        H  0.09409018  0.62231872  0.93477784     0.14300
H996        H  0.09306641  0.62714830  0.83003671     0.14100
C997        C  0.35584723  0.85870088  0.88311481     0.85900
C998        C  0.34896492  0.87775366  0.85511971    -0.54300
C999        C  0.31720059  0.87225904  0.85583192     0.08900
C1000       C  0.29556467  0.84922141  0.88520859     0.19800
C1001       C  0.34813268  0.87135168  0.91611109    -0.55000
C1002       C  0.31631846  0.86547682  0.91754033     0.09000
C1003       C  0.32706193  0.82142595  0.87962955    -0.54600
C1004       C  0.29551509  0.81654812  0.88037421     0.09500
H1005       H  0.36802279  0.89520513  0.83741516     0.14000
H1006       H  0.27004533  0.84544405  0.88628257    -0.00200
H1007       H  0.36628777  0.88505031  0.93610529     0.14300
H1008       H  0.33137955  0.80083519  0.87642742     0.14100
C1009       C  0.48568545  0.64332661  0.87317431     0.85900
C1010       C  0.51229393  0.65294659  0.84448846    -0.54300
C1011       C  0.53938333  0.68517175  0.84688863     0.08900
C1012       C  0.53718829  0.70532634  0.87612548     0.19800
C1013       C  0.50613543  0.65211345  0.90653755    -0.55000
C1014       C  0.53306718  0.68451569  0.90801654     0.09000
C1015       C  0.47651261  0.67054938  0.86979928    -0.54600
C1016       C  0.50346377  0.70278656  0.87107386     0.09500
H1017       H  0.51080286  0.63757999  0.82334231     0.14000
H1018       H  0.55892068  0.73175618  0.87710235    -0.00200
H1019       H  0.49952207  0.63415410  0.92721624     0.14300
H1020       H  0.45093936  0.66479377  0.86617467     0.14100
C1021       C  0.48686095  0.86765732  0.87091486     0.85900
C1022       C  0.51041202  0.88562876  0.84014589    -0.54300
C1023       C  0.53661815  0.88056056  0.83817984     0.08900
C1024       C  0.53765321  0.85909189  0.86714044     0.19800
C1025       C  0.47682595  0.83059193  0.86840639    -0.55000
C1026       C  0.50334274  0.82615663  0.86679668     0.09000
C1027       C  0.51126814  0.88185847  0.90183969    -0.54600
C1028       C  0.53796652  0.87731291  0.89975177     0.09500
H1029       H  0.50747864  0.90149719  0.82199685     0.14000
H1030       H  0.55869200  0.85464473  0.86522230    -0.00200
H1031       H  0.45081709  0.80964748  0.86806530     0.14300
H1032       H  0.50832068  0.89505420  0.92296415     0.14100
C1033       C  0.50834079  0.15011651  0.62587529     0.85900
C1034       C  0.48783023  0.13566679  0.59287511    -0.54300
C1035       C  0.46211707  0.14126339  0.58963167     0.08900
C1036       C  0.45905017  0.16072439  0.61918620     0.19800
C1037       C  0.51941409  0.18776889  0.62622406    -0.55000
C1038       C  0.49361954  0.19317619  0.62209876     0.09000
C1039       C  0.48162473  0.13453506  0.65482346    -0.54600
C1040       C  0.45595513  0.14056568  0.65138548     0.09500
H1041       H  0.49271596  0.12157389  0.57422733     0.14000
H1042       H  0.43821462  0.16539743  0.61596707    -0.00200
H1043       H  0.54542751  0.20827573  0.62880250     0.14300
H1044       H  0.48290164  0.12077554  0.67641313     0.14100
C1045       C  0.63211160  0.14559494  0.63967222     0.85900
C1046       C  0.64182889  0.13130751  0.60934463    -0.54300
C1047       C  0.67340056  0.13620786  0.61149020     0.08900
C1048       C  0.69245370  0.15533058  0.64376139     0.19800
C1049       C  0.63805255  0.12993808  0.67182911    -0.55000
C1050       C  0.66947807  0.13485722  0.67355516     0.09000
C1051       C  0.66076340  0.18309933  0.64167022    -0.54600
C1052       C  0.69233423  0.18825073  0.64326851     0.09500
H1053       H  0.62501404  0.11839336  0.58809785     0.14000
H1054       H  0.71816452  0.15981893  0.64559834    -0.00200
H1055       H  0.62053494  0.11747319  0.69251112     0.14300
H1056       H  0.65620397  0.20366720  0.64263492     0.14100
C1057       C  0.86352849  0.37507431  0.63974573     0.85900
C1058       C  0.87990135  0.37238116  0.67288268    -0.54300
C1059       C  0.87550100  0.34135815  0.67798815     0.08900
C1060       C  0.85432073  0.31538184  0.65044500     0.19800
C1061       C  0.87699294  0.36277950  0.61118088    -0.55000
C1062       C  0.87220229  0.33149985  0.61663872     0.09000
C1063       C  0.82622083  0.34642750  0.64396911    -0.54600
C1064       C  0.82122808  0.31504447  0.64912785     0.09500
H1065       H  0.89256816  0.39230549  0.69150705     0.14000
H1066       H  0.85059111  0.29016885  0.65463277    -0.00200
H1067       H  0.88884779  0.37750314  0.58833164     0.14300
H1068       H  0.80547027  0.35064130  0.64295770     0.14100
C1069       C  0.86127319  0.49965554  0.62302053     0.85900
C1070       C  0.87870918  0.52530781  0.65244309    -0.54300
C1071       C  0.87443363  0.55213259  0.65085720     0.08900
C1072       C  0.85293081  0.55079002  0.62071938     0.19800
C1073       C  0.82417145  0.48995230  0.62599180    -0.55000
C1074       C  0.81990673  0.51674239  0.62461182     0.09000
C1075       C  0.87460319  0.52091982  0.59004166    -0.54600
C1076       C  0.86997771  0.54757071  0.58883998     0.04700
H1077       H  0.89168612  0.52206993  0.67362250     0.14000
H1078       H  0.84937842  0.57255640  0.61958068    -0.00200
H1079       H  0.80318518  0.46430341  0.62994761     0.14300
H1080       H  0.88581701  0.51483104  0.56926359     0.14100
C1081       C  0.63698870  0.50001719  0.62444993     0.85900
C1082       C  0.64586114  0.52424491  0.65470769    -0.54300
C1083       C  0.67858076  0.55048791  0.65499509     0.08900
C1084       C  0.69943426  0.55007653  0.62506679     0.19800
C1085       C  0.64754940  0.52320579  0.59256725    -0.55000
C1086       C  0.68037004  0.54929854  0.59300657     0.09000
C1087       C  0.66301580  0.48911491  0.62560623    -0.54600
C1088       C  0.69565396  0.51537481  0.62630643     0.09500
H1089       H  0.62742615  0.52138655  0.67341952     0.14000
H1090       H  0.72598932  0.57141909  0.62555664    -0.00200
H1091       H  0.63168837  0.51939316  0.57083336     0.14300
H1092       H  0.65610422  0.46292354  0.62642019     0.14100
C1093       C  0.50467098  0.37312351  0.62397296     0.85900
C1094       C  0.51581856  0.34728275  0.62193966    -0.54300
C1095       C  0.49004650  0.31450682  0.62328369     0.08900
C1096       C  0.45533178  0.31002506  0.62676319     0.19800
C1097       C  0.47848747  0.36223128  0.59465518    -0.55000
C1098       C  0.45285307  0.32916885  0.59645238     0.09000
C1099       C  0.48329113  0.36356893  0.65670553    -0.54600
C1100       C  0.45739710  0.33058804  0.65809523     0.09500
H1101       H  0.54188597  0.35435260  0.61905411     0.14000
H1102       H  0.43443800  0.28316887  0.62779369    -0.00200
H1103       H  0.47908993  0.37761171  0.57381979     0.14300
H1104       H  0.48861935  0.38137698  0.67711463     0.14100
In1105     In  0.29519202  0.08000972  0.96209856     1.36900
C1106       C  0.29269835  0.07306370  0.89485550     0.77000
O1107       O  0.26890378  0.02300510  0.96197138    -0.61400
O1108       O  0.25999220  0.04639375  0.00345943    -0.52300
C1109       C  0.35071608  0.09647176  0.49848853     0.69700
O1110       O  0.35143637  0.10171520  0.96512042    -0.47200
C1111       C  0.28930368  0.13402352  0.96742792     0.74400
O1112       O  0.31695259  0.07627498  0.91229933    -0.59100
O1113       O  0.26415710  0.10441633  0.97064397    -0.49100
O1114       O  0.26878352  0.07093445  0.91198235    -0.55500
C1115       C  0.25533926  0.01944351  0.99072122     0.84600
O1116       O  0.32203596  0.08075724  0.51216001    -0.57400
O1117       O  0.31666594  0.13558617  0.96246885    -0.60700
In1118     In  0.21648823  0.93009113  0.54575310     1.36900
C1119       C  0.22505994  0.94010018  0.61280504     0.77000
O1120       O  0.22898394  0.95959468  0.49647688    -0.61400
O1121       O  0.23040875  0.98435555  0.54201944    -0.52300
C1122       C  0.25339632  0.90948544  0.51535440     0.69700
O1123       O  0.26630399  0.93437081  0.53549672    -0.47200
C1124       C  0.15395985  0.87675578  0.54443912     0.74400
O1125       O  0.24339820  0.93352434  0.59496685    -0.59100
O1126       O  0.16063093  0.90466751  0.53186130    -0.49100
O1127       O  0.20381280  0.94331453  0.59614696    -0.55500
C1128       C  0.23614466  0.98678812  0.51052944     0.84600
O1129       O  0.22584168  0.89521897  0.01341860    -0.57400
O1130       O  0.17865625  0.87697846  0.55746578    -0.60700
In1131     In  0.91901851  0.22689699  0.97477810     1.36900
C1132       C  0.92951485  0.23422163  0.90791258     0.77000
O1133       O  0.97059590  0.26874136  0.98573809    -0.61400
O1134       O  0.95815522  0.21946412  0.00083885    -0.52300
C1135       C  0.90114828  0.25919251  0.51556880     0.69700
O1136       O  0.90323819  0.26387258  0.98606189    -0.47200
C1137       C  0.86239789  0.16706699  0.97512963     0.74400
O1138       O  0.92417127  0.25375129  0.92516321    -0.59100
O1139       O  0.88984711  0.17054979  0.98495763    -0.49100
O1140       O  0.93120174  0.21222743  0.92503989    -0.55500
C1141       C  0.97965488  0.25082801  0.00065312     0.84600
O1142       O  0.90585486  0.23585730  0.52428568    -0.57400
O1143       O  0.86411347  0.19394331  0.96632381    -0.60700
In1144     In  0.07347128  0.30369406  0.54435605     1.36900
C1145       C  0.06340138  0.29951925  0.61108536     0.77000
O1146       O  0.02608638  0.29904444  0.52707436    -0.61400
O1147       O  0.02879291  0.25498495  0.52335392    -0.52300
C1148       C  0.09368202  0.35473544  0.00230270     0.69700
O1149       O  0.08899208  0.35762475  0.53445973    -0.47200
C1150       C  0.12730442  0.29807517  0.54298187     0.74400
O1151       O  0.07394393  0.32659786  0.59464999    -0.59100
O1152       O  0.10085105  0.27785523  0.52669949    -0.49100
O1153       O  0.05584587  0.27406801  0.59313440    -0.55500
C1154       C  0.01220514  0.26891133  0.51741104     0.84600
O1155       O  0.08904627  0.32686750  0.99219495    -0.57400
O1156       O  0.12600813  0.32074628  0.55896625    -0.60700
In1157     In  0.77149750  0.07764815  0.96756286     1.36900
C1158       C  0.76969173  0.06948230  0.90052810     0.77000
O1159       O  0.80487982  0.13280883  0.96029391    -0.61400
O1160       O  0.82639301  0.10690768  0.98324008    -0.52300
C1161       C  0.73917960  0.09981722  0.50935522     0.69700
O1162       O  0.73223859  0.09138383  0.97562915    -0.47200
C1163       C  0.74502138  0.01705211  0.99562917     0.74400
O1164       O  0.74922267  0.07462088  0.91614232    -0.59100
O1165       O  0.77655446  0.03724085  0.99454444    -0.49100
O1166       O  0.78971551  0.06624146  0.91935570    -0.55500
C1167       C  0.83054622  0.13464877  0.97304520     0.84600
O1168       O  0.76269692  0.09577668  0.51888445    -0.57400
O1169       O  0.72802329  0.02703963  0.98052598    -0.60700
In1170     In  0.69143166  0.92491956  0.54327086     1.36900
C1171       C  0.69760713  0.93624853  0.61025374     0.77000
O1172       O  0.67201596  0.87048436  0.55263557    -0.61400
O1173       O  0.71944907  0.89901757  0.52801880    -0.52300
C1174       C  0.63919853  0.90661192  0.50193528     0.69700
O1175       O  0.63674404  0.90776362  0.53390628    -0.47200
C1176       C  0.72741119  0.98618091  0.51607064     0.74400
O1177       O  0.67003368  0.92486991  0.59476756    -0.59100
O1178       O  0.73870451  0.96676089  0.51739516    -0.49100
O1179       O  0.72224089  0.94311488  0.59137481    -0.55500
C1180       C  0.69694564  0.87082385  0.53996872     0.84600
O1181       O  0.66707855  0.90897542  0.99203751    -0.57400
O1182       O  0.69938371  0.97505069  0.53046552    -0.60700
In1183     In  0.06392095  0.78569265  0.54520059     1.36900
C1184       C  0.05821740  0.78068557  0.61252624     0.77000
O1185       O  0.11807411  0.81867584  0.55535716    -0.61400
O1186       O  0.09394342  0.84220545  0.53300619    -0.52300
C1187       C  0.07706640  0.74363615  0.51246652     0.69700
O1188       O  0.05311655  0.73292273  0.53351431    -0.47200
C1189       C  0.00801846  0.77099894  0.51279030     0.74400
O1190       O  0.06269251  0.76086880  0.59466513    -0.59100
O1191       O  0.00862822  0.76619036  0.54425909    -0.49100
O1192       O  0.05457241  0.80178090  0.59583386    -0.55500
C1193       C  0.12093206  0.84538009  0.54413075     0.84600
O1194       O  0.09649630  0.77702865  0.00593589    -0.57400
O1195       O  0.03645824  0.78685821  0.49862064    -0.60700
In1196     In  0.92061178  0.71112799  0.96249868     1.36900
C1197       C  0.92734709  0.71152060  0.89539113     0.77000
O1198       O  0.86787441  0.69397020  0.94990341    -0.61400
O1199       O  0.89592879  0.74110619  0.97533340    -0.52300
C1200       C  0.90388510  0.65519209  0.49330938     0.69700
O1201       O  0.92416711  0.66520234  0.97383533    -0.47200
C1202       C  0.97834927  0.75191201  0.99508476     0.74400
O1203       O  0.92072144  0.68633979  0.91357762    -0.59100
O1204       O  0.95010814  0.73903790  0.00949027    -0.49100
O1205       O  0.93249765  0.73714850  0.91168728    -0.55500
C1206       C  0.86807664  0.71883844  0.96257088     0.84600
O1207       O  0.88844632  0.67049907  0.49666471    -0.57400
O1208       O  0.97693115  0.74639545  0.96360468    -0.60700
In1209     In  0.77801990  0.71489915  0.96293154     1.36900
C1210       C  0.76983677  0.71702860  0.89624201     0.77000
O1211       O  0.73526076  0.71669777  0.98397879    -0.61400
O1212       O  0.78295216  0.76242354  0.98606870    -0.52300
C1213       C  0.74605336  0.65951725  0.49752486     0.69700
O1214       O  0.73568597  0.66260100  0.97399365    -0.47200
C1215       C  0.83723464  0.71986661  0.96248547     0.74400
O1216       O  0.75328295  0.69042886  0.91361701    -0.59100
O1217       O  0.83349372  0.74163052  0.97776558    -0.49100
O1218       O  0.78890267  0.74326821  0.91327778    -0.55500
C1219       C  0.75188820  0.74694489  0.99329819     0.84600
O1220       O  0.77415780  0.68485093  0.50592199    -0.57400
O1221       O  0.81142718  0.69713250  0.94741295    -0.60700
In1222     In  0.69826536  0.78305980  0.54181043     1.36900
C1223       C  0.70434760  0.78006312  0.60916268     0.77000
O1224       O  0.70542985  0.74226604  0.52317655    -0.61400
O1225       O  0.74633872  0.79245119  0.51555707    -0.52300
C1226       C  0.64364275  0.74840278  0.00241456     0.69700
O1227       O  0.64619754  0.73813474  0.53216016    -0.47200
C1228       C  0.69881880  0.84034014  0.54007048     0.74400
O1229       O  0.67755493  0.76040345  0.59328768    -0.59100
O1230       O  0.72203946  0.83808399  0.52613227    -0.49100
O1231       O  0.72896010  0.79964218  0.59040624    -0.55500
C1232       C  0.73437473  0.76128934  0.51094904     0.84600
O1233       O  0.66932758  0.77597320  0.99337903    -0.57400
O1234       O  0.67637020  0.81384825  0.55464150    -0.60700
In1235     In  0.28937327  0.22290853  0.96642923     1.36900
C1236       C  0.28916032  0.23159640  0.89946395     0.77000
O1237       O  0.31380880  0.19307906  0.96167816    -0.61400
O1238       O  0.26184221  0.16576796  0.97449295    -0.52300
C1239       C  0.33728265  0.25583582  0.50790424     0.69700
O1240       O  0.34235199  0.26341626  0.97679336    -0.47200
C1241       C  0.25455524  0.24731316  0.99438732     0.74400
O1242       O  0.31469283  0.24941808  0.91770354    -0.59100
O1243       O  0.24225799  0.21576497  0.99286210    -0.49100
O1244       O  0.26309953  0.21041412  0.91562579    -0.55500
C1245       C  0.28794115  0.16485437  0.96816688     0.84600
O1246       O  0.30819485  0.23414330  0.51862268    -0.57400
O1247       O  0.28254258  0.26499875  0.97983165    -0.60700
In1248     In  0.21616742  0.29909788  0.54506167     1.36900
C1249       C  0.15787924  0.29651459  0.54378719     0.77000
O1250       O  0.20256746  0.26926980  0.59433564    -0.61400
O1251       O  0.24119383  0.32109032  0.59527245    -0.52300
C1252       C  0.23699606  0.26305125  0.51247384     0.69700
O1253       O  0.20684227  0.24953356  0.52239306    -0.47200
C1254       C  0.24799810  0.35538800  0.50853002     0.74400
O1255       O  0.16208684  0.27594006  0.52682399    -0.59100
O1256       O  0.26015490  0.35209604  0.53602939    -0.49100
O1257       O  0.18271031  0.31694397  0.56164241    -0.55500
C1258       C  0.22260119  0.29451886  0.61210646     0.84600
O1259       O  0.25566168  0.29363538  0.52025627    -0.57400
O1260       O  0.22045414  0.32969747  0.49959339    -0.60700
In1261     In  0.29698919  0.08679693  0.79076876     1.36900
C1262       C  0.29334278  0.07470924  0.85750896     0.77000
O1263       O  0.31855646  0.14112277  0.80125295    -0.61400
O1264       O  0.26916632  0.11373111  0.78020463    -0.52300
C1265       C  0.34801997  0.10798284  0.74751579     0.69700
O1266       O  0.35081544  0.10404965  0.77900506    -0.47200
C1267       C  0.26151977  0.02656026  0.76205417     0.74400
O1268       O  0.31930050  0.08275721  0.84025554    -0.59100
O1269       O  0.24893386  0.04465509  0.76600609    -0.49100
O1270       O  0.26872119  0.07082960  0.84037373    -0.55500
C1271       C  0.29319703  0.14159336  0.79116500     0.84600
O1272       O  0.31962219  0.10288461  0.73893299    -0.57400
O1273       O  0.29049805  0.03855925  0.77431527    -0.60700
In1274     In  0.22020455  0.93337289  0.71770914     1.36900
C1275       C  0.22612136  0.94114263  0.65022661     0.77000
O1276       O  0.18614475  0.87853572  0.70879796    -0.61400
O1277       O  0.16452510  0.90474165  0.73041479    -0.52300
C1278       C  0.25107157  0.91484792  0.76149313     0.69700
O1279       O  0.25886044  0.92018465  0.73027463    -0.47200
C1280       C  0.24532282  0.99424440  0.74417647     0.74400
O1281       O  0.24406703  0.93365501  0.66755348    -0.59100
O1282       O  0.21385870  0.97431214  0.74134972    -0.49100
O1283       O  0.20708707  0.94707111  0.66756516    -0.55500
C1284       C  0.16011858  0.87706193  0.71988808     0.84600
O1285       O  0.22698583  0.91834670  0.76985878    -0.57400
O1286       O  0.26294919  0.98380953  0.73150538    -0.60700
In1287     In  0.92564241  0.23115850  0.80282998     1.36900
C1288       C  0.93111833  0.23516339  0.87062409     0.77000
O1289       O  0.87041155  0.19704605  0.79508883    -0.61400
O1290       O  0.89937273  0.17419542  0.79380607    -0.52300
C1291       C  0.91458548  0.27698562  0.77477802     0.69700
O1292       O  0.94327751  0.28056741  0.77522457    -0.47200
C1293       C  0.98084083  0.24536344  0.76872135     0.74400
O1294       O  0.92936683  0.25679275  0.85296694    -0.59100
O1295       O  0.98097204  0.25099475  0.80015211    -0.49100
O1296       O  0.93218550  0.21291250  0.85363475    -0.55500
C1297       C  0.87044507  0.17018023  0.79303061     0.84600
O1298       O  0.89234170  0.25100383  0.79019253    -0.57400
O1299       O  0.95199328  0.22995018  0.75512359    -0.60700
In1300     In  0.06969349  0.29883386  0.71529071     1.36900
C1301       C  0.06272339  0.29839199  0.64835925     0.77000
O1302       O  0.12328781  0.31782121  0.70421736    -0.61400
O1303       O  0.09530647  0.26941799  0.72743439    -0.52300
C1304       C  0.08810926  0.35611882  0.74755886     0.69700
O1305       O  0.06522260  0.34421770  0.72524698    -0.47200
C1306       C  0.01220892  0.25971146  0.74905847     0.74400
O1307       O  0.07111176  0.32415691  0.66620098    -0.59100
O1308       O  0.04065256  0.27296845  0.76304270    -0.49100
O1309       O  0.05603596  0.27227013  0.66493450    -0.55500
C1310       C  0.12342821  0.29276662  0.71602394     0.84600
O1311       O  0.10146553  0.33901348  0.75254371    -0.57400
O1312       O  0.01316315  0.26326458  0.71720869    -0.60700
In1313     In  0.77892964  0.07936263  0.79639803     1.36900
C1314       C  0.77167164  0.07005501  0.86328658     0.77000
O1315       O  0.75258441  0.02285656  0.79747962    -0.61400
O1316       O  0.78211324  0.04880544  0.75398937    -0.52300
C1317       C  0.73546354  0.09020329  0.76302777     0.69700
O1318       O  0.74005191  0.09435066  0.79473469    -0.47200
C1319       C  0.83861542  0.13734907  0.79210672     0.74400
O1320       O  0.75046850  0.07170272  0.84480842    -0.59100
O1321       O  0.83627413  0.10914613  0.79033123    -0.49100
O1322       O  0.79581165  0.07131778  0.84738573    -0.55500
C1323       C  0.76152292  0.02087988  0.76775512     0.84600
O1324       O  0.75272242  0.08016777  0.74861319    -0.57400
O1325       O  0.81091342  0.13552814  0.79481707    -0.60700
In1326     In  0.70252158  0.93369915  0.71491464     1.36900
C1327       C  0.70032402  0.93885630  0.64753131     0.77000
O1328       O  0.72686965  0.96095745  0.76350835    -0.61400
O1329       O  0.74434473  0.98814895  0.71693556    -0.52300
C1330       C  0.64638387  0.91996786  0.74655683     0.69700
O1331       O  0.66347506  0.94649681  0.72902552    -0.47200
C1332       C  0.70800337  0.87982171  0.71666816     0.74400
O1333       O  0.67561097  0.93162745  0.66648520    -0.59100
O1334       O  0.73143447  0.90793779  0.72777267    -0.49100
O1335       O  0.72694064  0.94618104  0.66316175    -0.55500
C1336       C  0.74508030  0.98906208  0.74901889     0.84600
O1337       O  0.65808757  0.90101215  0.74768052    -0.57400
O1338       O  0.68277111  0.87981457  0.70556855    -0.60700
In1339     In  0.07002672  0.78606928  0.71682002     1.36900
C1340       C  0.05972691  0.78080006  0.64984854     0.77000
O1341       O  0.02017863  0.74280140  0.73123044    -0.61400
O1342       O  0.02922086  0.79178177  0.74162090    -0.52300
C1343       C  0.08533732  0.75150727  0.75872127     0.69700
O1344       O  0.08231492  0.74626592  0.72694808    -0.47200
C1345       C  0.12759842  0.84514967  0.71976303     0.74400
O1346       O  0.06794107  0.76284641  0.66615493    -0.59100
O1347       O  0.10045431  0.84163571  0.73068533    -0.49100
O1348       O  0.05504932  0.80029420  0.66796564    -0.55500
C1349       C  0.00966512  0.76012888  0.74446327     0.84600
O1350       O  0.08236259  0.77565789  0.76841781    -0.57400
O1351       O  0.12499775  0.81876069  0.70803817    -0.60700
In1352     In  0.91711538  0.70616421  0.79091081     1.36900
C1353       C  0.92651947  0.71028660  0.85808737     0.77000
O1354       O  0.96768879  0.71597101  0.77814906    -0.61400
O1355       O  0.95737690  0.75363576  0.76351453    -0.52300
C1356       C  0.90018566  0.65394555  0.75031580     0.69700
O1357       O  0.90357355  0.65248842  0.78210425    -0.47200
C1358       C  0.86300304  0.71145998  0.78867116     0.74400
O1359       O  0.91684472  0.68346309  0.84175281    -0.59100
O1360       O  0.89173541  0.73557650  0.77991137    -0.49100
O1361       O  0.93322788  0.73542565  0.83994057    -0.55500
C1362       C  0.97760891  0.74338677  0.76279187     0.84600
O1363       O  0.90338585  0.68123313  0.74004521    -0.57400
O1364       O  0.86202764  0.68484462  0.79713882    -0.60700
In1365     In  0.77556311  0.71317268  0.79202509     1.36900
C1366       C  0.76933818  0.71657211  0.85893785     0.77000
O1367       O  0.80536153  0.68922546  0.80113090    -0.61400
O1368       O  0.83139693  0.73868632  0.77984806    -0.52300
C1369       C  0.74308667  0.66203264  0.74961918     0.69700
O1370       O  0.73280777  0.66077618  0.77976067    -0.47200
C1371       C  0.75308323  0.74876965  0.76194309     0.74400
O1372       O  0.75194814  0.68967306  0.84231134    -0.59100
O1373       O  0.78420245  0.76173557  0.76759006    -0.49100
O1374       O  0.78829525  0.74230481  0.84111966    -0.55500
C1375       C  0.83266427  0.71346486  0.78976829     0.84600
O1376       O  0.76991491  0.68924275  0.74203028    -0.57400
O1377       O  0.73441793  0.71930407  0.77333753    -0.60700
In1378     In  0.70439937  0.78974115  0.71379464     1.36900
C1379       C  0.70561422  0.78180789  0.64656699     0.77000
O1380       O  0.68379908  0.82212973  0.70432066    -0.61400
O1381       O  0.73245050  0.84581456  0.72680805    -0.52300
C1382       C  0.65131402  0.75637316  0.75427002     0.69700
O1383       O  0.65073891  0.74963277  0.72308877    -0.47200
C1384       C  0.73828736  0.76501340  0.74297436     0.74400
O1385       O  0.67960372  0.76488864  0.66449759    -0.59100
O1386       O  0.75134110  0.79655026  0.73988829    -0.49100
O1387       O  0.73185057  0.80177194  0.66317504    -0.55500
C1388       C  0.70853674  0.84871869  0.71607521     0.84600
O1389       O  0.67917687  0.78078497  0.76463004    -0.57400
O1390       O  0.70987135  0.74725738  0.72927126    -0.60700
In1391     In  0.29553454  0.23086264  0.79486003     1.36900
C1392       C  0.29051214  0.23358208  0.86218681     0.77000
O1393       O  0.28655706  0.27125466  0.77880242    -0.61400
O1394       O  0.24807615  0.22092209  0.76726471    -0.52300
C1395       C  0.35018940  0.26386368  0.75639628     0.69700
O1396       O  0.34766019  0.27529278  0.78464150    -0.47200
C1397       C  0.29270397  0.17270806  0.79244670     0.74400
O1398       O  0.31706186  0.25366879  0.84611345    -0.59100
O1399       O  0.26882761  0.17548635  0.78125962    -0.49100
O1400       O  0.26591187  0.21372410  0.84372042    -0.55500
C1401       C  0.25861647  0.25197626  0.76475198     0.84600
O1402       O  0.32455619  0.23619321  0.74763421    -0.57400
O1403       O  0.31712353  0.19923888  0.80490025    -0.60700
In1404     In  0.21439583  0.29765589  0.71640984     1.36900
C1405       C  0.22200993  0.29431167  0.64954303     0.77000
O1406       O  0.25811662  0.29530577  0.73395601    -0.61400
O1407       O  0.20988736  0.25108606  0.74161418    -0.52300
C1408       C  0.24503410  0.35077516  0.75744970     0.69700
O1409       O  0.25356870  0.35193983  0.72667854    -0.47200
C1410       C  0.15482013  0.29256872  0.71636108     0.74400
O1411       O  0.23952282  0.32087610  0.66660899    -0.59100
O1412       O  0.15826437  0.26966121  0.72946864    -0.49100
O1413       O  0.20202337  0.26860354  0.66697367    -0.55500
C1414       C  0.24140330  0.26597106  0.74612239     0.84600
O1415       O  0.22027446  0.32249781  0.76669316    -0.57400
O1416       O  0.18123879  0.31684856  0.70355331    -0.60700
C1417       C  0.39892489  0.29390167  0.51642422    -0.26900
C1418       C  0.36650987  0.27577610  0.53073506    -0.14900
C1419       C  0.36283282  0.27650655  0.56638501     0.35700
C1420       C  0.39163260  0.29489507  0.58671320    -0.26300
C1421       C  0.42405941  0.31250267  0.57247770    -0.15600
C1422       C  0.42779749  0.31155403  0.53673575     0.36800
N1423       N  0.46006319  0.32667874  0.52014743    -0.89800
H1424       H  0.40208313  0.29328611  0.48914545     0.17900
H1425       H  0.38876533  0.29547799  0.61405853     0.17900
N1426       N  0.33003787  0.25869374  0.58194347    -0.88800
H1427       H  0.46089027  0.30751700  0.50722842     0.35200
H1428       H  0.47977584  0.33612119  0.53757353     0.40300
H1429       H  0.31726105  0.27045776  0.57405228     0.40000
H1430       H  0.33197342  0.26095924  0.60845856     0.34900
C1431       C  0.39205840  0.31518146  0.72552383    -0.26900
C1432       C  0.38036423  0.28166745  0.73470542    -0.14900
C1433       C  0.39598954  0.26524211  0.72075567     0.35700
C1434       C  0.42183055  0.28238589  0.69682484    -0.26300
C1435       C  0.43253521  0.31540498  0.68632853    -0.15600
C1436       C  0.41752345  0.33206070  0.70095208     0.36800
N1437       N  0.42684029  0.36526803  0.68962485    -0.89800
H1438       H  0.37988398  0.32756064  0.73613055     0.17900
H1439       H  0.43355125  0.26957424  0.68618167     0.17900
N1440       N  0.38654350  0.23143550  0.73014273    -0.88800
H1441       H  0.41341315  0.37385608  0.70298704     0.35200
H1442       H  0.41970518  0.36341933  0.66408679     0.40300
H1443       H  0.36861420  0.22170786  0.74955965     0.40000
H1444       H  0.40784709  0.23263606  0.74033138     0.34900
C1445       C  0.57598641  0.46530892  0.60256202    -0.26900
C1446       C  0.60065514  0.46982292  0.62625890    -0.14900
C1447       C  0.59090773  0.44556695  0.65245733     0.35700
C1448       C  0.55915965  0.41580168  0.65159323    -0.26300
C1449       C  0.53573864  0.40929383  0.62550062    -0.15600
C1450       C  0.54356873  0.43594950  0.60231134     0.36800
N1451       N  0.51884230  0.43430690  0.57936851    -0.89800
H1452       H  0.58113942  0.48487442  0.58446318     0.17900
H1453       H  0.55321515  0.39682993  0.67098983     0.17900
N1454       N  0.61357921  0.45062475  0.67968483    -0.88800
H1455       H  0.52904216  0.45562842  0.56363145     0.35200
H1456       H  0.50034709  0.43451886  0.59416717     0.40300
H1457       H  0.60196694  0.45000131  0.70266464     0.40000
H1458       H  0.61752079  0.43049583  0.67971318     0.34900
C1459       C  0.71478019  0.61146237  0.66761951    -0.26900
C1460       C  0.69289266  0.57864683  0.67987328    -0.14900
C1461       C  0.68651669  0.57352883  0.71514921     0.35700
C1462       C  0.70243728  0.60121705  0.73740474    -0.26300
C1463       C  0.72538054  0.63390162  0.72514702    -0.15600
C1464       C  0.73124427  0.63889090  0.68960414     0.36800
N1465       N  0.75335405  0.67145383  0.67475618    -0.89800
H1466       H  0.71933450  0.61600085  0.64051030     0.17900
H1467       H  0.69760826  0.59689366  0.76450088     0.17900
N1468       N  0.66502459  0.54024322  0.72864976    -0.88800
H1469       H  0.77795235  0.68048309  0.68300313     0.35200
H1470       H  0.74571797  0.68790349  0.68239189     0.40300
H1471       H  0.64551414  0.53991687  0.74204370     0.40000
H1472       H  0.67900064  0.53533447  0.74594466     0.34900
C1473       C  0.74536129  0.61456887  0.53215224    -0.26900
C1474       C  0.72808191  0.62932941  0.51919826    -0.14900
C1475       C  0.69412064  0.61595478  0.52813093     0.35700
C1476       C  0.67858517  0.58909949  0.55154294    -0.26300
C1477       C  0.69622839  0.57505907  0.56557950    -0.15600
C1478       C  0.72943183  0.58701506  0.55458183     0.36800
N1479       N  0.74669732  0.57064436  0.56535402    -0.89800
H1480       H  0.77120471  0.62425029  0.52455275     0.17900
H1481       H  0.65302038  0.57989793  0.55973345     0.17900
N1482       N  0.67594248  0.63042733  0.51425983    -0.88800
H1483       H  0.76927738  0.58860185  0.57698472     0.35200
H1484       H  0.75251223  0.56166038  0.54371988     0.40300
H1485       H  0.68729084  0.65515176  0.52329667     0.40000
H1486       H  0.65112728  0.61749006  0.52320649     0.34900
C1487       C  0.75959098  0.49022238  0.60758846    -0.26900
C1488       C  0.78675291  0.51368291  0.62772048    -0.14900
C1489       C  0.78252279  0.53530027  0.64932079     0.35700
C1490       C  0.75193179  0.53397686  0.64960004    -0.26300
C1491       C  0.72535822  0.51185092  0.62826897    -0.15600
C1492       C  0.72904766  0.48940188  0.60738469     0.36800
N1493       N  0.70266529  0.46707535  0.58467084    -0.89800
H1494       H  0.76261573  0.47359040  0.59076141     0.17900
H1495       H  0.74920735  0.55090815  0.66627491     0.17900
N1496       N  0.80915768  0.55862939  0.67122285    -0.88800
H1497       H  0.69605637  0.44237988  0.59039647     0.35200
H1498       H  0.71216352  0.47259818  0.55983301     0.40300
H1499       H  0.81486068  0.58298434  0.66519542     0.40000
H1500       H  0.80043455  0.55338458  0.69634517     0.34900
C1501       C  0.85357581  0.57745586  0.54866323    -0.26900
C1502       C  0.87827091  0.57092700  0.55938340    -0.14900
C1503       C  0.91067679  0.58929805  0.54454806     0.35700
C1504       C  0.91833485  0.61576994  0.52141362    -0.26300
C1505       C  0.89413840  0.62392312  0.51286820    -0.15600
C1506       C  0.86096014  0.60332218  0.52530861     0.36800
N1507       N  0.83488850  0.60899532  0.51447025    -0.89800
H1508       H  0.82839847  0.56266049  0.55921545     0.17900
H1509       H  0.94365157  0.63107457  0.51135649     0.17900
N1510       N  0.93593574  0.58192777  0.55386312    -0.88800
H1511       H  0.81200128  0.59179145  0.52613424     0.35200
H1512       H  0.83140969  0.60416614  0.48832250     0.40300
H1513       H  0.94140372  0.58762538  0.57966975     0.40000
H1514       H  0.95828217  0.59758651  0.54050963     0.34900
C1515       C  0.87479052  0.56863558  0.71141923    -0.26900
C1516       C  0.88535397  0.57825575  0.67758881    -0.14900
C1517       C  0.90216130  0.61260075  0.66844394     0.35700
C1518       C  0.90648543  0.63654156  0.69276333    -0.26300
C1519       C  0.89481203  0.62703035  0.72630263    -0.15600
C1520       C  0.87928451  0.59272271  0.73596711     0.36800
N1521       N  0.86719711  0.58230123  0.77016276    -0.89800
H1522       H  0.86145169  0.54210266  0.71821775     0.17900
H1523       H  0.91922908  0.66291930  0.68546000     0.17900
N1524       N  0.91456640  0.62296075  0.63431437    -0.88800
H1525       H  0.85659087  0.55628079  0.77302146     0.35200
H1526       H  0.84775531  0.58681076  0.77415148     0.40300
H1527       H  0.93312329  0.61720010  0.63022291     0.40000
H1528       H  0.92630969  0.64912818  0.63162774     0.34900
C1529       C  0.86624780  0.31256970  0.73344573    -0.26900
C1530       C  0.88869554  0.33248995  0.70774068    -0.14900
C1531       C  0.92193672  0.33956631  0.70823293     0.35700
C1532       C  0.93080435  0.32295235  0.73214395    -0.26300
C1533       C  0.90699745  0.29971902  0.75555739    -0.15600
C1534       C  0.87493734  0.29598456  0.75741956     0.36800
N1535       N  0.85087304  0.27443673  0.78273089    -0.89800
H1536       H  0.84137626  0.30897310  0.73396181     0.17900
H1537       H  0.95580490  0.32683908  0.73127489     0.17900
N1538       N  0.94632324  0.36321331  0.68430000    -0.88800
H1539       H  0.82831637  0.27391642  0.78000985     0.35200
H1540       H  0.86067655  0.28510703  0.80653962     0.40300
H1541       H  0.93835572  0.35382016  0.65975055     0.40000
H1542       H  0.96958526  0.36539081  0.68791529     0.34900
C1543       C  0.87421085  0.31566828  0.55625493    -0.26900
C1544       C  0.88056348  0.31347006  0.59088895    -0.14900
C1545       C  0.89356062  0.29320844  0.60033733     0.35700
C1546       C  0.89945275  0.27543898  0.57537831    -0.26300
C1547       C  0.89315936  0.27766351  0.54078727    -0.15600
C1548       C  0.88041367  0.29810176  0.53111421     0.36800
N1549       N  0.87351448  0.30079422  0.49594581    -0.89800
H1550       H  0.86365424  0.33062382  0.54877135     0.17900
H1551       H  0.90970959  0.26027929  0.58318752     0.17900
N1552       N  0.90182022  0.29122176  0.63505498    -0.88800
H1553       H  0.86397530  0.31576966  0.99440291     0.35200
H1554       H  0.85257276  0.27520560  0.99166369     0.40300
H1555       H  0.92734806  0.29924442  0.63620949     0.40000
H1556       H  0.88791358  0.26589898  0.64263377     0.34900
C1557       C  0.84450299  0.41013836  0.60913296    -0.26900
C1558       C  0.86786198  0.40946863  0.63134988    -0.14900
C1559       C  0.89451592  0.44101839  0.64362052     0.35700
C1560       C  0.89197079  0.46967879  0.64097281    -0.26300
C1561       C  0.86529186  0.46891487  0.62327645    -0.15600
C1562       C  0.84347864  0.43950960  0.60422598     0.36800
N1563       N  0.81991450  0.43924792  0.58039425    -0.89800
H1564       H  0.82652877  0.38737299  0.59570559     0.17900
H1565       H  0.91228010  0.49313036  0.65127700     0.17900
N1566       N  0.92624321  0.44621935  0.65462764    -0.88800
H1567       H  0.80520972  0.41546123  0.56922811     0.35200
H1568       H  0.83377454  0.45597532  0.56067622     0.40300
H1569       H  0.92931514  0.42650392  0.64719057     0.40000
H1570       H  0.92784297  0.44884563  0.68110679     0.34900
C1571       C  0.74915904  0.22519568  0.66779371    -0.26900
C1572       C  0.72387217  0.22200557  0.64604174    -0.14900
C1573       C  0.72979923  0.25036843  0.62682232     0.35700
C1574       C  0.76137486  0.28069417  0.62901419    -0.26300
C1575       C  0.78709612  0.28349088  0.65019856    -0.15600
C1576       C  0.78020739  0.25546921  0.67048847     0.36800
N1577       N  0.80413258  0.25751354  0.69466110    -0.89800
H1578       H  0.74485780  0.20400366  0.68323628     0.17900
H1579       H  0.76625277  0.30181310  0.61304964     0.17900
N1580       N  0.70435883  0.24812995  0.60436918    -0.88800
H1581       H  0.80957940  0.23901387  0.68866344     0.35200
H1582       H  0.79284251  0.25180862  0.71873342     0.40300
H1583       H  0.70052358  0.23101386  0.58509894     0.40000
H1584       H  0.71262726  0.27134355  0.59248939     0.34900
C1585       C  0.68373964  0.12868007  0.55003290    -0.26900
C1586       C  0.68864758  0.12526140  0.58487502    -0.14900
C1587       C  0.70938720  0.11274319  0.59389422     0.35700
C1588       C  0.72545434  0.10516105  0.56870205    -0.26300
C1589       C  0.72103407  0.10884526  0.53403024    -0.15600
C1590       C  0.69950369  0.12036674  0.52446365     0.36800
N1591       N  0.69436550  0.12447390  0.48912449    -0.89800
H1592       H  0.66807044  0.13845098  0.54270614     0.17900
H1593       H  0.74124406  0.09568588  0.57662700     0.17900
N1594       N  0.71372635  0.10661336  0.62864743    -0.88800
H1595       H  0.67771852  0.12991669  0.98274144     0.35200
H1596       H  0.67926657  0.09551829  0.97480129     0.40300
H1597       H  0.73941825  0.12101530  0.63439433     0.40000
H1598       H  0.70593427  0.08114330  0.63112336     0.34900
C1599       C  0.67740413  0.08965162  0.69510996    -0.26900
C1600       C  0.68054521  0.12085815  0.70091899    -0.14900
C1601       C  0.69742865  0.13937207  0.73050718     0.35700
C1602       C  0.71311272  0.12743288  0.75188426    -0.26300
C1603       C  0.71314282  0.09809431  0.74384745    -0.15600
C1604       C  0.69414159  0.07836079  0.71582556     0.36800
N1605       N  0.69250260  0.04735349  0.70813838    -0.89800
H1606       H  0.66317782  0.07485026  0.67324518     0.17900
H1607       H  0.72706730  0.14229440  0.77383961     0.17900
N1608       N  0.69929615  0.17020289  0.73962799    -0.88800
H1609       H  0.67779314  0.03608233  0.68645778     0.35200
H1610       H  0.68021226  0.03068037  0.72839361     0.40300
H1611       H  0.68700593  0.17677721  0.72190887     0.40000
H1612       H  0.72465133  0.18958568  0.73964543     0.34900
C1613       C  0.53903304  0.12181697  0.64978036    -0.26900
C1614       C  0.53841426  0.14522930  0.62748958    -0.14900
C1615       C  0.56622125  0.16360780  0.60534554     0.35700
C1616       C  0.59518351  0.16198340  0.60932289    -0.26300
C1617       C  0.59751182  0.14179498  0.63461410    -0.15600
C1618       C  0.56767536  0.11925194  0.65285548     0.36800
N1619       N  0.56503716  0.09220892  0.67279591    -0.89800
H1620       H  0.51699952  0.10432391  0.66430258     0.17900
H1621       H  0.61653330  0.17745342  0.59282912     0.17900
N1622       N  0.56544328  0.18447491  0.57889231    -0.88800
H1623       H  0.54564225  0.06942156  0.66272512     0.35200
H1624       H  0.55828329  0.09440925  0.69760085     0.40300
H1625       H  0.56910836  0.17606257  0.55558819     0.40000
H1626       H  0.58559669  0.20918970  0.58266675     0.34900
C1627       C  0.51594103  0.28232806  0.64293381    -0.26900
C1628       C  0.49465650  0.28564505  0.62018970    -0.14900
C1629       C  0.47611612  0.26021898  0.59605798     0.35700
C1630       C  0.47794581  0.23126500  0.59595267    -0.26300
C1631       C  0.49744897  0.22675158  0.62003357    -0.15600
C1632       C  0.51717203  0.25282903  0.64334417     0.36800
N1633       N  0.53688491  0.24873742  0.66863079    -0.89800
H1634       H  0.53023601  0.30186637  0.66159721     0.17900
H1635       H  0.46322725  0.21177086  0.57741290     0.17900
N1636       N  0.45524471  0.26361584  0.57165832    -0.88800
H1637       H  0.52851907  0.25092639  0.69262128     0.35200
H1638       H  0.56190783  0.26850966  0.66582385     0.40300
H1639       H  0.43054094  0.24326558  0.57479058     0.40000
H1640       H  0.46331674  0.26204655  0.54728775     0.34900
C1641       C  0.40757627  0.12606907  0.73465657    -0.26900
C1642       C  0.37541005  0.11656945  0.72261322    -0.14900
C1643       C  0.36978043  0.11443444  0.68702686     0.35700
C1644       C  0.39617459  0.12135817  0.66465620    -0.26300
C1645       C  0.42835715  0.13086632  0.67666410    -0.15600
C1646       C  0.43407609  0.13371583  0.71213450     0.36800
N1647       N  0.46703633  0.14578671  0.72549901    -0.89800
H1648       H  0.41246901  0.12820479  0.76180205     0.17900
H1649       H  0.39136904  0.11909779  0.63753005     0.17900
N1650       N  0.33737743  0.10518654  0.67352298    -0.88800
H1651       H  0.46555883  0.12744393  0.74210015     0.35200
H1652       H  0.47437270  0.16760257  0.73960087     0.40300
H1653       H  0.32057414  0.07980724  0.67964317     0.40000
H1654       H  0.33810376  0.10667967  0.64692754     0.34900
C1655       C  0.43935666  0.14776683  0.53483445    -0.26900
C1656       C  0.43678879  0.12722075  0.56226021    -0.14900
C1657       C  0.40739516  0.09538040  0.56651122     0.35700
C1658       C  0.38001996  0.08525696  0.54455022    -0.26300
C1659       C  0.38178102  0.10631581  0.51787046    -0.15600
C1660       C  0.41232536  0.13748518  0.51234026     0.36800
N1661       N  0.41602053  0.15998994  0.48537738    -0.89800
H1662       H  0.46198365  0.17244942  0.53167007     0.17900
H1663       H  0.35699445  0.06114580  0.54888511     0.17900
N1664       N  0.40496595  0.07377872  0.59387828    -0.88800
H1665       H  0.39735988  0.16583788  0.48798343     0.35200
H1666       H  0.41272134  0.14771917  0.46215165     0.40300
H1667       H  0.40025710  0.05109495  0.58336723     0.40000
H1668       H  0.38427466  0.06841425  0.60895761     0.34900
C1669       C  0.55590868  0.88387182  0.96113438    -0.26900
C1670       C  0.56455560  0.88794498  0.92637191    -0.14900
C1671       C  0.59831354  0.90006235  0.91732375     0.35700
C1672       C  0.62175870  0.90514396  0.94239144    -0.26300
C1673       C  0.61309792  0.90003939  0.97697219    -0.15600
C1674       C  0.58001381  0.89048950  0.98662918     0.36800
N1675       N  0.57073876  0.88689022  0.02197769    -0.89800
H1676       H  0.53015889  0.87488434  0.96843558     0.17900
H1677       H  0.64733279  0.91389053  0.93453364     0.17900
N1678       N  0.60947619  0.90824816  0.88275503    -0.88800
H1679       H  0.54217510  0.86900530  0.52455978     0.35200
H1680       H  0.57932086  0.90301864  0.53485413     0.40300
H1681       H  0.61919509  0.89345041  0.87541749     0.40000
H1682       H  0.62927358  0.93346126  0.88199136     0.34900
C1683       C  0.61581844  0.93596132  0.78629879    -0.26900
C1684       C  0.61543068  0.91152903  0.76505581    -0.14900
C1685       C  0.58671826  0.87835487  0.76483246     0.35700
C1686       C  0.56046568  0.86996043  0.78763329    -0.26300
C1687       C  0.56193248  0.89354892  0.81065149    -0.15600
C1688       C  0.58950256  0.92733671  0.80942097     0.36800
N1689       N  0.59199544  0.95323653  0.83140761    -0.89800
H1690       H  0.63762028  0.96147112  0.78636082     0.17900
H1691       H  0.53870623  0.84449209  0.78759261     0.17900
N1692       N  0.58334503  0.85245132  0.74222119    -0.88800
H1693       H  0.61390892  0.96276525  0.84589439     0.35200
H1694       H  0.57196480  0.94370512  0.84857792     0.40300
H1695       H  0.60242059  0.86213628  0.72396286     0.40000
H1696       H  0.56112223  0.84360607  0.72836076     0.34900
C1697       C  0.47920054  0.73668735  0.88896483    -0.26900
C1698       C  0.50082394  0.73280106  0.86741176    -0.14900
C1699       C  0.52147989  0.75864486  0.84426192     0.35700
C1700       C  0.52096975  0.78834301  0.84376346    -0.26300
C1701       C  0.50012160  0.79283073  0.86591096    -0.15600
C1702       C  0.47901054  0.76670097  0.88873658     0.36800
N1703       N  0.45897389  0.77130161  0.91310741    -0.89800
H1704       H  0.46363027  0.71703760  0.90718577     0.17900
H1705       H  0.53757714  0.80819593  0.82638211     0.17900
N1706       N  0.54298979  0.75484722  0.82115305    -0.88800
H1707       H  0.46638729  0.76864588  0.93747119     0.35200
H1708       H  0.43384713  0.75202708  0.90967273     0.40300
H1709       H  0.56779699  0.77448494  0.82551081     0.40000
H1710       H  0.53649428  0.75739659  0.79631478     0.34900
C1711       C  0.57137696  0.73245229  0.94546133    -0.26900
C1712       C  0.55797834  0.69863082  0.93618690    -0.14900
C1713       C  0.57153980  0.68057355  0.95078904     0.35700
C1714       C  0.59848923  0.69676724  0.97380790    -0.26300
C1715       C  0.61312137  0.73112130  0.98123762    -0.15600
C1716       C  0.59917326  0.74908179  0.96735847     0.36800
N1717       N  0.61202144  0.78416313  0.47463949    -0.89800
H1718       H  0.56074953  0.74631931  0.93475055     0.17900
H1719       H  0.60921573  0.68294494  0.98441863     0.17900
N1720       N  0.55953311  0.64653786  0.94075587    -0.88800
H1721       H  0.59733565  0.79238105  0.46313794     0.35200
H1722       H  0.63575332  0.79810677  0.46326071     0.40300
H1723       H  0.57971354  0.64574220  0.93036049     0.40000
H1724       H  0.55139658  0.63138082  0.96260450     0.34900
C1725       C  0.56197080  0.70023604  0.78789035    -0.26900
C1726       C  0.56805259  0.70058316  0.82286310    -0.14900
C1727       C  0.60138969  0.71859196  0.83501662     0.35700
C1728       C  0.62806341  0.73662441  0.81218221    -0.26300
C1729       C  0.62213839  0.73679601  0.77715590    -0.15600
C1730       C  0.58867173  0.71829543  0.76481356     0.36800
N1731       N  0.58169729  0.71919075  0.72928396    -0.89800
H1732       H  0.53623420  0.68686120  0.77873306     0.17900
H1733       H  0.65358725  0.75039824  0.82194874     0.17900
N1734       N  0.60827198  0.71834380  0.87055633    -0.88800
H1735       H  0.55574807  0.70694438  0.72511848     0.35200
H1736       H  0.58974090  0.70516747  0.71618484     0.40300
H1737       H  0.62396450  0.70873421  0.87335793     0.40000
H1738       H  0.62134116  0.74327943  0.87922833     0.34900
C1739       C  0.32112820  0.91033600  0.95581034    -0.26900
C1740       C  0.30376477  0.87613944  0.94649290    -0.14900
C1741       C  0.27408610  0.85290612  0.96418361     0.35700
C1742       C  0.26075082  0.86468616  0.98830176    -0.26300
C1743       C  0.27665079  0.89922213  0.99583898    -0.15600
C1744       C  0.30803874  0.92213718  0.98066216     0.36800
N1745       N  0.32548163  0.95742500  0.98896904    -0.89800
H1746       H  0.34430419  0.92805233  0.94273569     0.17900
H1747       H  0.23710555  0.84673588  0.00052647     0.17900
N1748       N  0.25716631  0.81722493  0.95861421    -0.88800
H1749       H  0.34747392  0.97095725  0.97447527     0.35200
H1750       H  0.32762058  0.96153827  0.51098474     0.40300
H1751       H  0.27452629  0.80969051  0.96174377     0.40000
H1752       H  0.24786378  0.81184154  0.93380206     0.34900
C1753       C  0.28533556  0.90009631  0.84358518    -0.26900
C1754       C  0.30383790  0.88650298  0.83097945    -0.14900
C1755       C  0.30549643  0.88312467  0.79531908     0.35700
C1756       C  0.28805517  0.89247361  0.77347936    -0.26300
C1757       C  0.26889638  0.90534540  0.78607995    -0.15600
C1758       C  0.26782420  0.90954318  0.82165277     0.36800
N1759       N  0.24951451  0.92381830  0.83548792    -0.89800
H1760       H  0.28409075  0.90285904  0.87085565     0.17900
H1761       H  0.28919527  0.88919854  0.74629924     0.17900
N1762       N  0.32346657  0.86910707  0.78038564    -0.88800
H1763       H  0.25369550  0.92772362  0.86169986     0.35200
H1764       H  0.22386029  0.90589426  0.83265173     0.40300
H1765       H  0.31561132  0.84576986  0.79174014     0.40000
H1766       H  0.34919312  0.88550373  0.78453298     0.34900
C1767       C  0.43971088  0.86459214  0.90561722    -0.26900
C1768       C  0.45500813  0.86945336  0.87348057    -0.14900
C1769       C  0.43575830  0.86720052  0.84451413     0.35700
C1770       C  0.40463668  0.86470876  0.84851423    -0.26300
C1771       C  0.39074882  0.86288425  0.88086419    -0.15600
C1772       C  0.40775618  0.86034681  0.90961023     0.36800
N1773       N  0.39202538  0.85156943  0.94258811    -0.89800
H1774       H  0.45167375  0.86177261  0.92788407     0.17900
H1775       H  0.39061621  0.86274409  0.82574318     0.17900
N1776       N  0.44653591  0.86556744  0.81082606    -0.88800
H1777       H  0.40798293  0.85103417  0.96093767     0.35200
H1778       H  0.37099482  0.82703568  0.94104229     0.40300
H1779       H  0.44820900  0.88538683  0.79652220     0.40000
H1780       H  0.42811101  0.84283837  0.79976379     0.34900
C1781       C  0.20567404  0.74828802  0.85849421    -0.26900
C1782       C  0.20043337  0.72194128  0.88013945    -0.14900
C1783       C  0.22748019  0.72566137  0.89989348     0.35700
C1784       C  0.25899945  0.75612034  0.89815696    -0.26300
C1785       C  0.26375203  0.78301226  0.87755911    -0.15600
C1786       C  0.23700250  0.77865055  0.85681916     0.36800
N1787       N  0.24173776  0.80502219  0.83401542    -0.89800
H1788       H  0.18514393  0.74516299  0.84273998     0.17900
H1789       H  0.27943152  0.75953438  0.91424451     0.17900
N1790       N  0.22252235  0.69916105  0.92263162    -0.88800
H1791       H  0.21944240  0.79805566  0.82103454     0.35200
H1792       H  0.25921035  0.80789688  0.81560491     0.40300
H1793       H  0.20529687  0.69647259  0.94128335     0.40000
H1794       H  0.24491300  0.70590828  0.93530243     0.34900
C1795       C  0.13209982  0.72105380  0.95468753    -0.26900
C1796       C  0.10695339  0.68849162  0.94447130    -0.14900
C1797       C  0.07460356  0.67334450  0.95933444     0.35700
C1798       C  0.06789969  0.69178065  0.98310156    -0.26300
C1799       C  0.09257431  0.72523014  0.99138509    -0.15600
C1800       C  0.12527784  0.73966903  0.97767623     0.36800
N1801       N  0.14625026  0.76612139  0.49749362    -0.89800
H1802       H  0.15717758  0.73243929  0.94399321     0.17900
H1803       H  0.04280652  0.68074266  0.99364145     0.17900
N1804       N  0.04833260  0.64010886  0.94917515    -0.88800
H1805       H  0.16961759  0.77186893  0.48801646     0.35200
H1806       H  0.14710895  0.76367142  0.52390273     0.40300
H1807       H  0.04316901  0.64130982  0.92346340     0.40000
H1808       H  0.02612835  0.63271053  0.96254830     0.34900
C1809       C  0.08755907  0.70773675  0.83949785    -0.26900
C1810       C  0.10383231  0.69144818  0.82812933    -0.14900
C1811       C  0.11361963  0.69436555  0.79373126     0.35700
C1812       C  0.10662353  0.71349358  0.77123771    -0.26300
C1813       C  0.09103828  0.73052119  0.78280797    -0.15600
C1814       C  0.08088401  0.72713227  0.81724542     0.36800
N1815       N  0.06370675  0.74320520  0.82952069    -0.89800
H1816       H  0.08027159  0.70548979  0.86604604     0.17900
H1817       H  0.11438883  0.71606108  0.74484445     0.17900
N1818       N  0.13173011  0.67906147  0.78212832    -0.88800
H1819       H  0.05858078  0.73863665  0.85556794     0.35200
H1820       H  0.04039249  0.73197119  0.81721224     0.40300
H1821       H  0.13719686  0.68373625  0.75615944     0.40000
H1822       H  0.15487108  0.69082786  0.79483774     0.34900
C1823       C  0.26390527  0.42793391  0.95212154    -0.26900
C1824       C  0.29812271  0.44275874  0.94385651    -0.14900
C1825       C  0.31687917  0.43102041  0.96072157     0.35700
C1826       C  0.30089483  0.40439963  0.98437511    -0.26300
C1827       C  0.26633755  0.38867854  0.99106447    -0.15600
C1828       C  0.24793773  0.40165246  0.97583846     0.36800
N1829       N  0.21309848  0.38889104  0.98361781    -0.89800
H1830       H  0.24893015  0.43644185  0.93987568     0.17900
H1831       H  0.31515365  0.39459023  0.99594049     0.17900
N1832       N  0.35148556  0.44427018  0.95237032    -0.88800
H1833       H  0.21145536  0.40917391  0.99237376     0.35200
H1834       H  0.20349808  0.37089547  0.50350450     0.40300
H1835       H  0.35381452  0.42442941  0.94353473     0.40000
H1836       H  0.36563891  0.45356480  0.97470583     0.34900
C1837       C  0.30284689  0.43883092  0.79447871    -0.26900
C1838       C  0.29519469  0.43274033  0.82937272    -0.14900
C1839       C  0.27198934  0.39939102  0.84038237     0.35700
C1840       C  0.25568730  0.37350516  0.81626090    -0.26300
C1841       C  0.26277909  0.37964278  0.78134038    -0.15600
C1842       C  0.28703735  0.41269338  0.77035536     0.36800
N1843       N  0.29532769  0.41981533  0.73484485    -0.89800
H1844       H  0.32057390  0.46430003  0.78580727     0.17900
H1845       H  0.23774227  0.34810648  0.82498592     0.17900
N1846       N  0.26563370  0.39158100  0.87605796    -0.88800
H1847       H  0.31438219  0.44508522  0.73126780     0.35200
H1848       H  0.27403571  0.41656306  0.72234837     0.40300
H1849       H  0.28797727  0.39591068  0.88705247     0.40000
H1850       H  0.24760580  0.36601945  0.87983480     0.34900
C1851       C  0.41377630  0.55029836  0.85532524    -0.26900
C1852       C  0.38980661  0.54596216  0.87976326    -0.14900
C1853       C  0.39940338  0.57194535  0.90387956     0.35700
C1854       C  0.43051281  0.60227864  0.90091034    -0.26300
C1855       C  0.45374369  0.60771672  0.87498605    -0.15600
C1856       C  0.44567932  0.58018108  0.85312562     0.36800
N1857       N  0.46969770  0.58146533  0.82948709    -0.89800
H1858       H  0.40849967  0.53037844  0.83786596     0.17900
H1859       H  0.43644350  0.62217768  0.91903862     0.17900
N1860       N  0.37732756  0.56786243  0.93134015    -0.88800
H1861       H  0.45917013  0.55978425  0.81440416     0.35200
H1862       H  0.48873751  0.58173173  0.84381616     0.40300
H1863       H  0.38996742  0.57062310  0.95424940     0.40000
H1864       H  0.37230265  0.58722305  0.92976874     0.34900
C1865       C  0.09758403  0.54103176  0.85937662    -0.26900
C1866       C  0.11946716  0.53756708  0.88134049    -0.14900
C1867       C  0.13484444  0.56136566  0.90788911     0.35700
C1868       C  0.13269280  0.59027817  0.90841041    -0.26300
C1869       C  0.11487595  0.59632155  0.88332264    -0.15600
C1870       C  0.09441943  0.56946970  0.86070653     0.36800
N1871       N  0.06909904  0.56954460  0.84027080    -0.89800
H1872       H  0.08207072  0.52155331  0.84130494     0.17900
H1873       H  0.14650329  0.60907425  0.92787101     0.17900
N1874       N  0.15359734  0.55679964  0.93398899    -0.88800
H1875       H  0.04574979  0.54850112  0.84699368     0.35200
H1876       H  0.07376787  0.56690724  0.81477886     0.40300
H1877       H  0.14279443  0.55621384  0.95749384     0.40000
H1878       H  0.17821368  0.57775056  0.93374434     0.34900
C1879       C  0.21889507  0.50084908  0.90673993    -0.26900
C1880       C  0.20735865  0.50557474  0.87553403    -0.14900
C1881       C  0.22652060  0.51125740  0.84558320     0.35700
C1882       C  0.25608621  0.51045798  0.84751820    -0.26300
C1883       C  0.26662436  0.50408774  0.87852631    -0.15600
C1884       C  0.24874194  0.50060023  0.90860471     0.36800
N1885       N  0.26082404  0.49645614  0.94079423    -0.89800
H1886       H  0.20403344  0.49643327  0.92954966     0.17900
H1887       H  0.27032177  0.51371000  0.82451081     0.17900
N1888       N  0.21664634  0.51740363  0.81296062    -0.88800
H1889       H  0.24462767  0.49400200  0.96048320     0.35200
H1890       H  0.28402148  0.51851707  0.94556158     0.40300
H1891       H  0.19416875  0.51707604  0.81440867     0.40000
H1892       H  0.21240898  0.49785714  0.79661449     0.34900
C1893       C  0.11918379  0.44073939  0.96484173    -0.26900
C1894       C  0.11192874  0.43252354  0.93027550    -0.14900
C1895       C  0.09844782  0.39885777  0.91974170     0.35700
C1896       C  0.09330494  0.37429797  0.94379353    -0.26300
C1897       C  0.10103085  0.38241531  0.97830332    -0.15600
C1898       C  0.11410054  0.41603915  0.98902502     0.36800
N1899       N  0.12285667  0.42519277  0.02411439    -0.89800
H1900       H  0.13001465  0.46671960  0.97274173     0.17900
H1901       H  0.08271670  0.34846133  0.93550795     0.17900
N1902       N  0.08976804  0.38963254  0.88463876    -0.88800
H1903       H  0.13187117  0.45074890  0.02770002     0.35200
H1904       H  0.14055243  0.42444548  0.53019909     0.40300
H1905       H  0.07007964  0.39327981  0.87862313     0.40000
H1906       H  0.08058409  0.36398845  0.88100453     0.34900
C1907       C  0.13822671  0.43238539  0.80375113    -0.26900
C1908       C  0.11349065  0.43891953  0.81430247    -0.14900
C1909       C  0.08088921  0.42010984  0.80004129     0.35700
C1910       C  0.07361179  0.39445500  0.77635398    -0.26300
C1911       C  0.09799467  0.38679879  0.76748965    -0.15600
C1912       C  0.13090462  0.40659212  0.78061920     0.36800
N1913       N  0.15663418  0.40000563  0.77092493    -0.89800
H1914       H  0.16329073  0.44685662  0.81439787     0.17900
H1915       H  0.04829841  0.37908023  0.76635110     0.17900
N1916       N  0.05490286  0.42586580  0.81081821    -0.88800
H1917       H  0.17936104  0.41660815  0.78319728     0.35200
H1918       H  0.16098584  0.40492232  0.74483704     0.40300
H1919       H  0.05021052  0.41950028  0.83663812     0.40000
H1920       H  0.03241632  0.40980814  0.79794903     0.34900
loop_ 
_geom_bond_atom_site_label_1 
_geom_bond_atom_site_label_2 
_geom_bond_distance 
_geom_bond_site_symmetry_2 
_ccdc_geom_bond_type 
C1            C2   1.545       .  S
C1            C7   1.556       .  S
C1            C5   1.546       .  S
C1          C906   1.538       .  S
C2            H9   1.086       .  S
C2            C3   1.368       .  D
C3            C4   1.531       .  S
C3          C934   1.485       .  S
C4            C8   1.529       .  S
C4            C6   1.523       .  S
C4           H10   1.111       .  S
C5           H11   1.086       .  S
C5            C6   1.360       .  D
C6          C920   1.471       .  S
C7           H12   1.081       .  S
C7            C8   1.367       .  D
C8          C948   1.483       .  S
C13          C14   1.541       .  S
C13          C19   1.539       .  S
C13          C17   1.554       .  S
C13         C892   1.537       .  S
C14          H21   1.085       .  S
C14          C15   1.368       .  D
C15          C16   1.537       .  S
C15         C864   1.492       .  S
C16          C20   1.535       .  S
C16          C18   1.535       .  S
C16          H22   1.110       .  S
C17          H23   1.082       .  S
C17          C18   1.371       .  D
C18         C878   1.490       .  S
C19          H24   1.086       .  S
C19          C20   1.358       .  D
C20         C923   1.475       .  S
C25          C26   1.548       .  S
C25          C31   1.554       .  S
C25          C29   1.547       .  S
C25         C909   1.544       .  S
C26          H33   1.086       .  S
C26          C27   1.362       .  D
C27          C28   1.529       .  S
C27         C822   1.483       .  S
C28          C32   1.524       .  S
C28          C30   1.532       .  S
C28          H34   1.111       .  S
C29          H35   1.086       .  S
C29          C30   1.368       .  D
C30         C836   1.484       .  S
C31          H36   1.076       .  S
C31          C32   1.365       .  D
C32         C850   1.481       .  S
C37          C38   1.547       .  S
C37          C43   1.544       .  S
C37          C41   1.547       .  S
C37         C811   1.540       .  S
C38          H45   1.084       .  S
C38          C39   1.367       .  D
C39          C40   1.534       .  S
C39         C794   1.486       .  S
C40          C44   1.532       .  S
C40          C42   1.534       .  S
C40          H46   1.110       .  S
C41          H47   1.083       .  S
C41          C42   1.363       .  D
C42         C780   1.482       .  S
C43          H48   1.086       .  S
C43          C44   1.367       .  D
C44         C825   1.488       .  S
C49          C50   1.558       .  S
C49          C55   1.543       .  S
C49          C53   1.544       .  S
C49         C895   1.541       .  S
C50          H57   1.080       .  S
C50          C51   1.369       .  D
C51          C52   1.529       .  S
C51         C766   1.488       .  S
C52          C56   1.528       .  S
C52          C54   1.532       .  S
C52          H58   1.110       .  S
C53          H59   1.085       .  S
C53          C54   1.368       .  D
C54         C752   1.490       .  S
C55          H60   1.086       .  S
C55          C56   1.359       .  D
C56         C738   1.475       .  S
C61          C62   1.549       .  S
C61          C67   1.553       .  S
C61          C65   1.537       .  S
C61         C808   1.537       .  S
C62          H69   1.085       .  S
C62          C63   1.365       .  D
C63          C64   1.532       .  S
C63         C727   1.480       .  S
C64          C68   1.535       .  S
C64          C66   1.530       .  S
C64          H70   1.109       .  S
C65          H71   1.086       .  S
C65          C66   1.362       .  D
C66         C741   1.482       .  S
C67          H72   1.084       .  S
C67          C68   1.370       .  D
C68         C710   1.491       .  S
C73          C74   1.540       .  S
C73          C79   1.555       .  S
C73          C77   1.547       .  S
C73         C654   1.536       .  S
C74          H81   1.086       .  S
C74          C75   1.361       .  D
C75          C76   1.527       .  S
C75         C696   1.471       .  S
C76          C80   1.536       .  S
C76          C78   1.528       .  S
C76          H82   1.109       .  S
C77          H83   1.085       .  S
C77          C78   1.365       .  D
C78         C671   1.482       .  S
C79          H84   1.079       .  S
C79          C80   1.371       .  D
C80         C685   1.498       .  S
C85          C86   1.542       .  S
C85          C91   1.546       .  S
C85          C89   1.551       .  S
C85         C657   1.538       .  S
C86          H93   1.086       .  S
C86          C87   1.367       .  D
C87          C88   1.534       .  S
C87         C626   1.489       .  S
C88          C92   1.536       .  S
C88          C90   1.532       .  S
C88          H94   1.108       .  S
C89          H95   1.080       .  S
C89          C90   1.360       .  D
C90         C640   1.481       .  S
C91          H96   1.085       .  S
C91          C92   1.366       .  D
C92         C612   1.488       .  S
C97          C98   1.548       .  S
C97         C103   1.552       .  S
C97         C101   1.541       .  S
C97         C598   1.544       .  S
C98         H105   1.082       .  S
C98          C99   1.363       .  D
C99         C100   1.533       .  S
C99         C570   1.477       .  S
C100        C104   1.535       .  S
C100        C102   1.529       .  S
C100        H106   1.102       .  S
C101        H107   1.086       .  S
C101        C102   1.369       .  D
C102        C584   1.489       .  S
C103        H108   1.085       .  S
C103        C104   1.369       .  D
C104        C615   1.498       .  S
C109        C110   1.554       .  S
C109        C115   1.543       .  S
C109        C113   1.545       .  S
C109        C601   1.540       .  S
C110        H117   1.083       .  S
C110        C111   1.369       .  D
C111        C112   1.529       .  S
C111        C556   1.484       .  S
C112        C116   1.533       .  S
C112        C114   1.527       .  S
C112        H118   1.111       .  S
C113        H119   1.086       .  S
C113        C114   1.361       .  D
C114        C528   1.475       .  S
C115        H120   1.085       .  S
C115        C116   1.368       .  D
C116        C542   1.488       .  S
C121        C122   1.543       .  S
C121        C127   1.537       .  S
C121        C125   1.554       .  S
C121        C486   1.529       .  S
C122        H129   1.086       .  S
C122        C123   1.364       .  D
C123        C124   1.528       .  S
C123        C500   1.474       .  S
C124        C128   1.529       .  S
C124        C126   1.529       .  S
C124        H130   1.110       .  S
C125        H131   1.083       .  S
C125        C126   1.370       .  D
C126        C517   1.482       .  S
C127        H132   1.087       .  S
C127        C128   1.359       .  D
C128        C531   1.474       .  S
C133        C134   1.539       .  S
C133        C139   1.546       .  S
C133        C137   1.544       .  S
C133        C489   1.530       .  S
C134        H141   1.086       .  S
C134        C135   1.361       .  D
C135        C136   1.530       .  S
C135        C668   1.479       .  S
C136        C140   1.536       .  S
C136        C138   1.527       .  S
C136        H142   1.111       .  S
C137        H143   1.084       .  S
C137        C138   1.362       .  D
C138        C461   1.472       .  S
C139        H144   1.085       .  S
C139        C140   1.368       .  D
C140        C475   1.484       .  S
In145       O147   2.252       .  S
In145       O148   2.249       .  S
In145       O150   2.261       .  S
In145       O152   2.257       .  S
In145       O153   2.292       .  S
In145       O154   2.248       .  S
In145       O157   2.227       .  S
In145      O1116   2.251       .  S
C146        O152   1.261       .  A
C146        O154   1.262       .  A
C146        C302   1.470       .  S
O147        C155   1.262       .  A
O148        C155   1.261       .  A
C149        O156   1.258   1_556  A
C149       O1110   1.261       .  A
C149        C699   1.476   1_556  S
O150       C1109   1.260       .  A
C151        O153   1.260       .  A
C151        O157   1.256       .  A
C151        C285   1.469       .  S
C155       C1128   1.466   1_545  S
O156      In1105   2.234   1_554  S
In158       O160   2.272   1_554  S
In158       O161   2.258       .  S
In158       O163   2.273       .  S
In158       O165   2.262       .  S
In158       O166   2.292       .  S
In158       O167   2.245       .  S
In158       O170   2.207       .  S
In158      O1129   2.222       .  S
C159        O165   1.264       .  A
C159        O167   1.260       .  A
C159        C315   1.471       .  S
O160        C168   1.258   1_556  A
O161        C168   1.258       .  A
C162        O163   1.265       .  A
C162       O1129   1.258       .  A
C162       C1743   1.480   1_554  S
C164        O166   1.266       .  A
C164        O170   1.256       .  A
C164        C233   1.467       .  S
C168       C1115   1.471   1_564  S
O169      In1118   2.225       .  S
O169       C1122   1.259       .  A
In171       O173   2.211       .  S
In171       O174   2.277       .  S
In171       O176   2.248       .  S
In171       O178   2.258       .  S
In171       O179   2.270       .  S
In171       O180   2.243       .  S
In171       O183   2.223       .  S
In171      O1142   2.232       .  S
C172        O178   1.262       .  A
C172        O180   1.261       .  A
C172        C328   1.468       .  S
O173        C181   1.259       .  A
O174        C181   1.265       .  A
C175        O182   1.263       .  A
C175       O1136   1.264   1_554  A
C175        C587   1.484       .  S
O176       C1135   1.265       .  A
C177        O179   1.265       .  A
C177        O183   1.259       .  A
C177        C207   1.467       .  S
C181       C1154   1.465   1_655  S
O182      In1131   2.235   1_554  S
In184       O186   2.202       .  S
In184       O187   2.279       .  S
In184       O189   2.248       .  S
In184       O191   2.238       .  S
In184       O192   2.280       .  S
In184       O193   2.244       .  S
In184       O196   2.214       .  S
In184      O1155   2.227   1_554  S
C185        O191   1.260       .  A
C185        O193   1.261       .  A
C185        C341   1.462       .  S
O186        C194   1.256       .  A
O187        C194   1.265       .  A
C188        O195   1.264       .  A
C188       O1149   1.265       .  A
C188        C937   1.482       .  S
O189       C1148   1.263       .  A
C190        O192   1.264       .  A
C190        O196   1.258       .  A
C190        C289   1.466       .  S
C194       C1141   1.460   1_455  S
O195      In1144   2.225       .  S
In197       O199   2.221       .  S
In197       O200   2.269       .  S
In197       O202   2.265       .  S
In197       O204   2.256       .  S
In197       O205   2.284       .  S
In197       O206   2.252       .  S
In197       O209   2.221       .  S
In197      O1168   2.218       .  S
C198        O204   1.262       .  A
C198        O206   1.260       .  A
C198        C354   1.470       .  S
O199        C207   1.260       .  A
O200        C207   1.265       .  A
C201        O208   1.263       .  A
C201       O1162   1.265   1_554  A
C201        C629   1.482       .  S
O202       C1161   1.266       .  A
C203        O205   1.264       .  A
C203        O209   1.257       .  A
C203       C1176   1.467   1_545  S
O208      In1157   2.211   1_554  S
In210       O212   2.224       .  S
In210       O213   2.274       .  S
In210       O215   2.258       .  S
In210       O217   2.248       .  S
In210       O218   2.275       .  S
In210       O219   2.253       .  S
In210       O222   2.212       .  S
In210      O1181   2.225   1_554  S
C211        O217   1.260       .  A
C211        O219   1.260       .  A
C211        C367   1.466       .  S
O212        C220   1.258       .  A
O213        C220   1.262       .  A
C214        O215   1.264       .  A
C214       O1181   1.264   1_554  A
C214       C1673   1.485   1_554  S
C216        O218   1.264       .  A
C216        O222   1.257       .  A
C216       C1163   1.462   1_564  S
C220        C268   1.465       .  S
O221      In1170   2.226       .  S
O221       C1174   1.262       .  A
In223       O225   2.205       .  S
In223       O226   2.289       .  S
In223       O228   2.275       .  S
In223       O230   2.246       .  S
In223       O231   2.258       .  S
In223       O232   2.242       .  S
In223       O235   2.258   1_554  S
In223      O1194   2.226       .  S
C224        O230   1.264       .  A
C224        O232   1.263       .  A
C224        C380   1.467       .  S
O225        C233   1.257       .  A
O226        C233   1.266       .  A
C227        O228   1.264       .  A
C227       O1194   1.257       .  A
C227       C1799   1.481   1_554  S
C229        O231   1.258       .  A
C229        O235   1.259   1_554  A
C229       C1202   1.467   1_454  S
O234      In1183   2.224       .  S
O234       C1187   1.257       .  A
In236       O238   2.208       .  S
In236       O239   2.286       .  S
In236       O241   2.282       .  S
In236       O243   2.249       .  S
In236       O244   2.246       .  S
In236       O245   2.243       .  S
In236       O248   2.245       .  S
In236      O1207   2.232       .  S
C237        O243   1.262       .  A
C237        O245   1.261       .  A
C237        C393   1.465       .  S
O238        C246   1.257       .  A
O239        C246   1.264       .  A
C240        O247   1.258       .  A
C240       O1201   1.262       .  A
C240        C545   1.482   1_556  S
O241       C1200   1.263       .  A
C242        O244   1.259       .  A
C242        O248   1.258       .  A
C242       C1189   1.460   1_655  S
C246        C255   1.465       .  S
O247      In1196   2.230       .  S
In249       O251   2.216       .  S
In249       O252   2.296       .  S
In249       O254   2.233       .  S
In249       O256   2.236       .  S
In249       O257   2.283       .  S
In249       O258   2.259       .  S
In249       O261   2.201       .  S
In249      O1220   2.238       .  S
C250        O256   1.258       .  A
C250        O258   1.261       .  A
C250        C406   1.463       .  S
O251        C259   1.255       .  A
O252        C259   1.266       .  A
C253        O260   1.263       .  A
C253       O1214   1.263   1_554  A
C253        C514   1.466       .  S
O254       C1213   1.263       .  A
C255        O257   1.268       .  A
C255        O261   1.258       .  A
C259       C1232   1.471       .  S
O260      In1209   2.241   1_554  S
In262       O264   2.209       .  S
In262       O265   2.283       .  S
In262       O267   2.253       .  S
In262       O269   2.236       .  S
In262       O270   2.271       .  S
In262       O271   2.259       .  S
In262       O274   2.213       .  S
In262      O1233   2.225   1_554  S
C263        O269   1.260       .  A
C263        O271   1.261       .  A
C263        C419   1.466       .  S
O264        C272   1.258       .  A
O265        C272   1.264       .  A
C266        O273   1.262       .  A
C266       O1227   1.265       .  A
C266        C755   1.476       .  S
O267       C1226   1.263       .  A
C268        O270   1.267       .  A
C268        O274   1.258       .  A
C272       C1219   1.465   1_554  S
O273      In1222   2.230       .  S
In275       O277   2.211       .  S
In275       O278   2.290       .  S
In275       O280   2.232       .  S
In275       O282   2.245       .  S
In275       O283   2.288       .  S
In275       O284   2.262       .  S
In275       O287   2.210       .  S
In275      O1246   2.237       .  S
C276        O282   1.259       .  A
C276        O284   1.262       .  A
C276        C432   1.468       .  S
O277        C285   1.256       .  A
O278        C285   1.267       .  A
C279        O286   1.264       .  A
C279       O1240   1.264   1_554  A
C279        C458   1.472       .  S
O280       C1239   1.265       .  A
C281        O283   1.266       .  A
C281        O287   1.258       .  A
C281       C1252   1.469       .  S
O286      In1235   2.227   1_554  S
In288       O290   2.263       .  S
In288       O291   2.245       .  S
In288       O299   2.218       .  S
In288       O293   2.298       .  S
In288       O295   2.280       .  S
In288       O296   2.257       .  S
In288       O297   2.212       .  S
In288       O300   2.228   1_554  S
C289        O295   1.266       .  A
C289        O297   1.258       .  A
O290        C298   1.261       .  A
O291        C298   1.260       .  A
C292        O299   1.256       .  A
C292        O293   1.263       .  A
C292       C1241   1.470   1_554  S
C294        O296   1.264       .  A
C294        O300   1.262   1_554  A
C294       C1827   1.474   1_554  S
C298        C445   1.469       .  S
In301       O303   2.220       .  S
In301       O304   2.262       .  S
In301       O312   2.226       .  S
In301       O306   2.256       .  S
In301       O308   2.265       .  S
In301       O309   2.277       .  S
In301       O310   2.252       .  S
In301       O313   2.211       .  S
C302        O308   1.261       .  A
C302        O310   1.259       .  A
O303        C311   1.260       .  A
O304        C311   1.263       .  A
C305        O312   1.262       .  A
C305        O306   1.266       .  A
C305        C682   1.487       .  S
C307        O309   1.263       .  A
C307        O313   1.257       .  A
C307        C320   1.461   1_545  S
C311        C437   1.463       .  S
In314       O316   2.213       .  S
In314       O317   2.272       .  S
In314       O325   2.238       .  S
In314       O319   2.241       .  S
In314       O321   2.261       .  S
In314       O322   2.273       .  S
In314       O323   2.254       .  S
In314       O326   2.209       .  S
C315        O321   1.260       .  A
C315        O323   1.261       .  A
O316        C324   1.258       .  A
O317        C324   1.264       .  A
C318        O325   1.263       .  A
C318        O319   1.265       .  A
C318        C797   1.482       .  S
C320        O322   1.264       .  A
C320        O326   1.258       .  A
C324        C385   1.463       .  S
In327       O329   2.217       .  S
In327       O330   2.303       .  S
In327       O338   2.232       .  S
In327       O332   2.278       .  S
In327       O334   2.265       .  S
In327       O335   2.251       .  S
In327       O336   2.249       .  S
In327       O339   2.260       .  S
C328        O334   1.259       .  A
C328        O336   1.258       .  A
O329        C337   1.256       .  A
O330        C337   1.266       .  A
C331        O338   1.257       .  A
C331        O332   1.263       .  A
C331        C573   1.479       .  S
C333        O335   1.258       .  A
C333        O339   1.261       .  A
C333        C346   1.466   1_655  S
C337        C359   1.473       .  S
In340       O342   2.214       .  S
In340       O343   2.287       .  S
In340       O351   2.224       .  S
In340       O345   2.272       .  S
In340       O347   2.240       .  S
In340       O348   2.252       .  S
In340       O349   2.240       .  S
In340       O352   2.250       .  S
C341        O347   1.262       .  A
C341        O349   1.261       .  A
O342        C350   1.258       .  A
O343        C350   1.266       .  A
C344        O351   1.258       .  A
C344        O345   1.262       .  A
C344        C951   1.478       .  S
C346        O348   1.260       .  A
C346        O352   1.258       .  A
C350        C450   1.469       .  S
In353       O355   2.254       .  S
In353       O356   2.260       .  S
In353       O364   2.244       .  S
In353       O358   2.271       .  S
In353       O360   2.251       .  S
In353       O361   2.305       .  S
In353       O362   2.252       .  S
In353       O365   2.225       .  S
C354        O360   1.261       .  A
C354        O362   1.263       .  A
O355        C363   1.261       .  A
O356        C363   1.262       .  A
C357        O364   1.258       .  A
C357        O358   1.261       .  A
C357        C643   1.479       .  S
C359        O361   1.263       .  A
C359        O365   1.255       .  A
C363        C376   1.470   1_545  S
In366       O368   2.257       .  S
In366       O369   2.257       .  S
In366       O377   2.235       .  S
In366       O371   2.257       .  S
In366       O373   2.247       .  S
In366       O374   2.286       .  S
In366       O375   2.248       .  S
In366       O378   2.202       .  S
C367        O373   1.261       .  A
C367        O375   1.261       .  A
O368        C376   1.259       .  A
O369        C376   1.260       .  A
C370        O377   1.259       .  A
C370        O371   1.263       .  A
C370        C724   1.474       .  S
C372        O374   1.264       .  A
C372        O378   1.255       .  A
C372        C428   1.461       .  S
In379       O381   2.196       .  S
In379       O382   2.274       .  S
In379       O390   2.233       .  S
In379       O384   2.243       .  S
In379       O386   2.249       .  S
In379       O387   2.272       .  S
In379       O388   2.249       .  S
In379       O391   2.211       .  S
C380        O386   1.261       .  A
C380        O388   1.261       .  A
O381        C389   1.257       .  A
O382        C389   1.265       .  A
C383        O390   1.263       .  A
C383        O384   1.265       .  A
C383        C853   1.481       .  S
C385        O387   1.265       .  A
C385        O391   1.258       .  A
C389        C402   1.457   1_455  S
In392       O394   2.201       .  S
In392       O395   2.275       .  S
In392       O403   2.232       .  S
In392       O397   2.251       .  S
In392       O399   2.251       .  S
In392       O400   2.264       .  S
In392       O401   2.247       .  S
In392       O404   2.216       .  S
C393        O399   1.259       .  A
C393        O401   1.259       .  A
O394        C402   1.257       .  A
O395        C402   1.263       .  A
C396        O403   1.263       .  A
C396        O397   1.263       .  A
C396        C559   1.483       .  S
C398        O400   1.262       .  A
C398        O404   1.259       .  A
C398        C415   1.461       .  S
In405       O407   2.205       .  S
In405       O408   2.268       .  S
In405       O416   2.225       .  S
In405       O410   2.234       .  S
In405       O412   2.232       .  S
In405       O413   2.282       .  S
In405       O414   2.253       .  S
In405       O417   2.193       .  S
C406        O412   1.260       .  A
C406        O414   1.262       .  A
O407        C415   1.257       .  A
O408        C415   1.267       .  A
C409        O416   1.263       .  A
C409        O410   1.265       .  A
C409        C503   1.479       .  S
C411        O413   1.267       .  A
C411        O417   1.257       .  A
C411        C424   1.462       .  S
In418       O420   2.203       .  S
In418       O421   2.281       .  S
In418       O429   2.233       .  S
In418       O423   2.252       .  S
In418       O425   2.236       .  S
In418       O426   2.287       .  S
In418       O427   2.266       .  S
In418       O430   2.200       .  S
C419        O425   1.258       .  A
C419        O427   1.262       .  A
O420        C428   1.256       .  A
O421        C428   1.263       .  A
C422        O429   1.264       .  A
C422        O423   1.263       .  A
C422        C769   1.483       .  S
C424        O426   1.264       .  A
C424        O430   1.256       .  A
In431       O433   2.219       .  S
In431       O434   2.296       .  S
In431       O442   2.226       .  S
In431       O436   2.247       .  S
In431       O438   2.249       .  S
In431       O439   2.267       .  S
In431       O440   2.259       .  S
In431       O443   2.215       .  S
C432        O438   1.260       .  A
C432        O440   1.260       .  A
O433        C441   1.256       .  A
O434        C441   1.264       .  A
C435        O442   1.262       .  A
C435        O436   1.264       .  A
C435        C472   1.470       .  S
C437        O439   1.267       .  A
C437        O443   1.259       .  A
C441        C454   1.470       .  S
In444       O446   2.212       .  S
In444       O447   2.292       .  S
In444       O455   2.236       .  S
In444       O449   2.246       .  S
In444       O451   2.241       .  S
In444       O452   2.288       .  S
In444       O453   2.264       .  S
In444       O456   2.212       .  S
C445        O451   1.260       .  A
C445        O453   1.262       .  A
O446        C454   1.257       .  A
O447        C454   1.266       .  A
C448        O455   1.264       .  A
C448        O449   1.264       .  A
C448        C881   1.485       .  S
C450        O452   1.267       .  A
C450        O456   1.257       .  A
C457        C458   1.402       .  A
C457        C462   1.398       .  A
C457        H464   1.084   1_554  S
C458        C459   1.411       .  A
C459        C460   1.402       .  A
C459        N466   1.438       .  S
C460        C461   1.401       .  A
C460        H465   1.084       .  S
C461        C462   1.418       .  A
C462        N463   1.440       .  S
N463        H467   1.046       .  S
N463        H468   1.040       .  S
N466        H469   1.046       .  S
N466        H470   1.046       .  S
C471        C472   1.401       .  A
C471        C476   1.406       .  A
C471        H478   1.084       .  S
C472        C473   1.416       .  A
C473        C474   1.399       .  A
C473        N480   1.440       .  S
C474        C475   1.402       .  A
C474        H479   1.084       .  S
C475        C476   1.414       .  A
C476        N477   1.438       .  S
N477        H481   1.045       .  S
N477        H482   1.046       .  S
N480        H483   1.043       .  S
N480        H484   1.045       .  S
C485        C486   1.406       .  A
C485        C490   1.402       .  A
C485        H492   1.078       .  S
C486        C487   1.415       .  A
C487        C488   1.399       .  A
C487        N494   1.433       .  S
C488        C489   1.406       .  A
C488        H493   1.082       .  S
C489        C490   1.419       .  A
C490        N491   1.432       .  S
N491        H495   1.046       .  S
N491        H496   1.046       .  S
N494        H497   1.046       .  S
N494        H498   1.046       .  S
C499        C500   1.401       .  A
C499        C504   1.395       .  A
C499        H506   1.084       .  S
C500        C501   1.404       .  A
C501        C502   1.403       .  A
C501        N508   1.432       .  S
C502        C503   1.407       .  A
C502        H507   1.084       .  S
C503        C504   1.417       .  A
C504        N505   1.433       .  S
N505        H509   1.045       .  S
N505        H510   1.046       .  S
N508        H511   1.045       .  S
N508        H512   1.046       .  S
C513        C514   1.399       .  A
C513        C518   1.402       .  A
C513        H520   1.084       .  S
C514        C515   1.409       .  A
C515        C516   1.405       .  A
C515        N522   1.438       .  S
C516        C517   1.403       .  A
C516        H521   1.083       .  S
C517        C518   1.411       .  A
C518        N519   1.432       .  S
N519        H523   1.046       .  S
N519        H524   1.045       .  S
N522        H525   1.046       .  S
N522        H526   1.046       .  S
C527        C528   1.401       .  A
C527        C532   1.403       .  A
C527        H534   1.084       .  S
C528        C529   1.408       .  A
C529        C530   1.398       .  A
C529        N536   1.431       .  S
C530        C531   1.399       .  A
C530        H535   1.084       .  S
C531        C532   1.410       .  A
C532        N533   1.432       .  S
N533        H537   1.045       .  S
N533        H538   1.046       .  S
N536        H539   1.046       .  S
N536        H540   1.046       .  S
C541        C542   1.403       .  A
C541        C546   1.404       .  A
C541        H548   1.084       .  S
C542        C543   1.414       .  A
C543        C544   1.410       .  A
C543        N550   1.437       .  S
C544        C545   1.404       .  A
C544        H549   1.083       .  S
C545        C546   1.412       .  A
C546        N547   1.438       .  S
N547        H551   1.044       .  S
N547        H552   1.046   1_554  S
N550        H553   1.046       .  S
N550        H554   1.046       .  S
C555        C556   1.404       .  A
C555        C560   1.408       .  A
C555        H562   1.083       .  S
C556        C557   1.410       .  A
C557        C558   1.402       .  A
C557        N564   1.438       .  S
C558        C559   1.404       .  A
C558        H563   1.084       .  S
C559        C560   1.414       .  A
C560        N561   1.437       .  S
N561        H565   1.046       .  S
N561        H566   1.046       .  S
N564        H567   1.045       .  S
N564        H568   1.046       .  S
C569        C570   1.397       .  A
C569        C574   1.403       .  A
C569        H576   1.082       .  S
C570        C571   1.409       .  A
C571        C572   1.410       .  A
C571        N578   1.438       .  S
C572        C573   1.405       .  A
C572        H577   1.084       .  S
C573        C574   1.412       .  A
C574        N575   1.438       .  S
N575        H579   1.045       .  S
N575        H580   1.046       .  S
N578        H581   1.044       .  S
N578        H582   1.046       .  S
C583        C584   1.404       .  A
C583        C588   1.408       .  A
C583        H590   1.083       .  S
C584        C585   1.412       .  A
C585        C586   1.400       .  A
C585        N592   1.433       .  S
C586        C587   1.404       .  A
C586        H591   1.084       .  S
C587        C588   1.414       .  A
C588        N589   1.437   1_554  S
N589       H1553   1.046       .  S
N589       H1554   1.046       .  S
N592        H595   1.046       .  S
N592        H596   1.046       .  S
H593       N1549   1.046       .  S
H594       N1549   1.045       .  S
C597        C598   1.409       .  A
C597        C602   1.406       .  A
C597        H604   1.082       .  S
C598        C599   1.423       .  A
C599        C600   1.405       .  A
C599        N606   1.435       .  S
C600        C601   1.410       .  A
C600        H605   1.080       .  S
C601        C602   1.418       .  A
C602        N603   1.439       .  S
N603        H607   1.045       .  S
N603        H608   1.045       .  S
N606        H609   1.044       .  S
N606        H610   1.045       .  S
C611        C612   1.397       .  A
C611        C616   1.394       .  A
C611        H618   1.081       .  S
C612        C613   1.413       .  A
C613        C614   1.411       .  A
C613        N620   1.437       .  S
C614        C615   1.410       .  A
C614        H619   1.083       .  S
C615        C616   1.413       .  A
C616        N617   1.429       .  S
N617        H621   1.046       .  S
N617        H622   1.046       .  S
N620        H623   1.045       .  S
N620        H624   1.046       .  S
C625        C626   1.407       .  A
C625        C630   1.413       .  A
C625        H632   1.083       .  S
C626        C627   1.407       .  A
C627        C628   1.394       .  A
C627        N634   1.430       .  S
C628        C629   1.401       .  A
C628        H633   1.084       .  S
C629        C630   1.415       .  A
C630        N631   1.437   1_554  S
N631       H1595   1.046       .  S
N631       H1596   1.045       .  S
N634        H637   1.046       .  S
N634        H638   1.046       .  S
H635       N1591   1.046       .  S
H636       N1591   1.045       .  S
C639        C640   1.400       .  A
C639        C644   1.404       .  A
C639        H646   1.084       .  S
C640        C641   1.417       .  A
C641        C642   1.406       .  A
C641        N648   1.438       .  S
C642        C643   1.404       .  A
C642        H647   1.084       .  S
C643        C644   1.410       .  A
C644        N645   1.438       .  S
N645        H649   1.046       .  S
N645        H650   1.045       .  S
N648        H651   1.044       .  S
N648        H652   1.045       .  S
C653        C654   1.408       .  A
C653        C658   1.404       .  A
C653        H660   1.078       .  S
C654        C655   1.415       .  A
C655        C656   1.403       .  A
C655        N662   1.433       .  S
C656        C657   1.408       .  A
C656        H661   1.084       .  S
C657        C658   1.418       .  A
C658        N659   1.430       .  S
N659        H663   1.046       .  S
N659        H664   1.046       .  S
N662        H665   1.046       .  S
N662        H666   1.046       .  S
C667        C668   1.404       .  A
C667        C672   1.405       .  A
C667        H674   1.084       .  S
C668        C669   1.406       .  A
C669        C670   1.398       .  A
C669        N676   1.432       .  S
C670        C671   1.404       .  A
C670        H675   1.083       .  S
C671        C672   1.409       .  A
C672        N673   1.432       .  S
N673        H677   1.046       .  S
N673        H678   1.045       .  S
N676        H679   1.046       .  S
N676        H680   1.045       .  S
C681        C682   1.405       .  A
C681        C686   1.407       .  A
C681        H688   1.084       .  S
C682        C683   1.414       .  A
C683        C684   1.402       .  A
C683        N690   1.439       .  S
C684        C685   1.405       .  A
C684        H689   1.081       .  S
C685        C686   1.415       .  A
C686        N687   1.431       .  S
N687        H691   1.046       .  S
N687        H692   1.045       .  S
N690        H693   1.046       .  S
N690        H694   1.046       .  S
C695        C696   1.401       .  A
C695        C700   1.402       .  A
C695        H702   1.084       .  S
C696        C697   1.404       .  A
C697        C698   1.400       .  A
C697        N704   1.432       .  S
C698        C699   1.404       .  A
C698        H703   1.084       .  S
C699        C700   1.416       .  A
C700        N701   1.432   1_554  S
N701        H705   1.046       .  S
N701        H706   1.045       .  S
N704        H707   1.045       .  S
N704        H708   1.045       .  S
C709        C710   1.407       .  A
C709        C714   1.413       .  A
C709        H716   1.083       .  S
C710        C711   1.409       .  A
C711        C712   1.398       .  A
C711        N718   1.432       .  S
C712        C713   1.404       .  A
C712        H717   1.084       .  S
C713       C1174   1.489       .  S
C713        C714   1.416       .  A
C714        N715   1.437       .  S
N715       H1679   1.046       .  S
N715       H1680   1.045       .  S
N718        H721   1.046       .  S
N718        H722   1.045       .  S
H719       N1675   1.046       .  S
H720       N1675   1.046       .  S
C723        C724   1.403       .  A
C723        C728   1.405       .  A
C723        H730   1.084       .  S
C724        C725   1.406       .  A
C725        C726   1.401       .  A
C725        N732   1.433       .  S
C726        C727   1.402       .  A
C726        H731   1.081       .  S
C727        C728   1.417       .  A
C728        N729   1.438       .  S
N729        H733   1.045       .  S
N729        H734   1.042       .  S
N732        H735   1.046       .  S
N732        H736   1.046       .  S
C737        C738   1.402       .  A
C737        C742   1.403       .  A
C737        H744   1.084       .  S
C738        C739   1.408       .  A
C739        C740   1.398       .  A
C739        N746   1.438       .  S
C740        C741   1.402       .  A
C740        H745   1.077       .  S
C741        C742   1.410       .  A
C742        N743   1.432       .  S
N743        H747   1.045       .  S
N743        H748   1.046       .  S
N746        H749   1.046       .  S
N746        H750   1.046       .  S
C751        C752   1.405       .  A
C751        C756   1.404       .  A
C751        H758   1.083       .  S
C752        C753   1.414       .  A
C753        C754   1.408       .  A
C753        N760   1.437       .  S
C754        C755   1.402       .  A
C754        H759   1.084       .  S
C755        C756   1.411       .  A
C756       N1717   1.439       .  S
N757       C1716   1.439       .  S
N757        H761   1.046       .  S
N757        H762   1.045       .  S
N760        H763   1.046       .  S
N760        H764   1.045       .  S
C765        C766   1.405       .  A
C765        C770   1.413       .  A
C765        H772   1.083       .  S
C766        C767   1.408       .  A
C767        C768   1.397       .  A
C767        N774   1.433       .  S
C768        C769   1.402       .  A
C768        H773   1.084       .  S
C769        C770   1.416       .  A
C770        N771   1.437       .  S
N771        H775   1.045       .  S
N771        H776   1.046       .  S
N774        H777   1.045       .  S
N774        H778   1.046       .  S
C779        C780   1.404       .  A
C779        C784   1.410       .  A
C779        H786   1.084       .  S
C780        C781   1.413       .  A
C781        C782   1.397       .  A
C781        N788   1.433       .  S
C782        C783   1.403       .  A
C782        H787   1.084       .  S
C783       C1122   1.477       .  S
C783        C784   1.412       .  A
C784        N785   1.437       .  S
N785        H789   1.046       .  S
N785       H1750   1.045       .  S
N788        H791   1.046       .  S
N788        H792   1.042       .  S
H790       N1745   1.045   1_554  S
C793        C794   1.404       .  A
C793        C798   1.402       .  A
C793        H800   1.084       .  S
C794        C795   1.417       .  A
C795        C796   1.400       .  A
C795        N802   1.433       .  S
C796        C797   1.404       .  A
C796        H801   1.084       .  S
C797        C798   1.411       .  A
C798        N799   1.433       .  S
N799        H803   1.045       .  S
N799        H804   1.046       .  S
N802        H805   1.044       .  S
N802        H806   1.043       .  S
C807        C808   1.409       .  A
C807        C812   1.409       .  A
C807        H814   1.080       .  S
C808        C809   1.417       .  A
C809        C810   1.404       .  A
C809        N816   1.432       .  S
C810        C811   1.408       .  A
C810        H815   1.083       .  S
C811        C812   1.420       .  A
C812        N813   1.437       .  S
N813        H817   1.046       .  S
N813        H818   1.046       .  S
N816        H819   1.046       .  S
N816        H820   1.046       .  S
C821        C822   1.400       .  A
C821        C826   1.401       .  A
C821        H828   1.084       .  S
C822        C823   1.411       .  A
C823        C824   1.410       .  A
C823        N830   1.437       .  S
C824        C825   1.405       .  A
C824        H829   1.083       .  S
C825        C826   1.413       .  A
C826        N827   1.437       .  S
N827        H831   1.046       .  S
N827        H832   1.044       .  S
N830        H833   1.046       .  S
N830        H834   1.045       .  S
C835        C836   1.401       .  A
C835        C840   1.400       .  A
C835        H842   1.084       .  S
C836        C837   1.413       .  A
C837        C838   1.413       .  A
C837        N844   1.437       .  S
C838        C839   1.406       .  A
C838        H843   1.084       .  S
C839       C1187   1.481       .  S
C839        C840   1.411       .  A
C840       N1801   1.439       .  S
N841       C1800   1.439       .  S
N841        H845   1.046       .  S
N841        H846   1.046   1_556  S
N844        H847   1.046       .  S
N844        H848   1.046       .  S
C849        C850   1.401       .  A
C849        C854   1.405       .  A
C849        H856   1.084       .  S
C850        C851   1.410       .  A
C851        C852   1.406       .  A
C851        N858   1.438       .  S
C852        C853   1.404       .  A
C852        H857   1.083       .  S
C853        C854   1.414       .  A
C854        N855   1.438       .  S
N855        H859   1.046       .  S
N855        H860   1.046       .  S
N858        H861   1.045       .  S
N858        H862   1.046       .  S
C863        C864   1.403       .  A
C863        C868   1.398       .  A
C863        H870   1.079       .  S
C864        C865   1.414       .  A
C865        C866   1.406       .  A
C865        N872   1.432       .  S
C866        C867   1.403       .  A
C866        H871   1.084       .  S
C867       C1254   1.474       .  S
C867        C868   1.416       .  A
C868        N869   1.441       .  S
N869        H873   1.046       .  S
N869       H1834   1.042       .  S
N872        H875   1.046       .  S
N872        H876   1.046       .  S
H874       N1829   1.043   1_554  S
C877        C878   1.404       .  A
C877        C882   1.410       .  A
C877        H884   1.083       .  S
C878        C879   1.412       .  A
C879        C880   1.403       .  A
C879        N886   1.437       .  S
C880        C881   1.403       .  A
C880        H885   1.084       .  S
C881        C882   1.415       .  A
C882        N883   1.437       .  S
N883        H887   1.046       .  S
N883        H888   1.046       .  S
N886        H889   1.046       .  S
N886        H890   1.045       .  S
C891        C892   1.409       .  A
C891        C896   1.412       .  A
C891        H898   1.077       .  S
C892        C893   1.415       .  A
C893        C894   1.401       .  A
C893        N900   1.434       .  S
C894        C895   1.409       .  A
C894        H899   1.084       .  S
C895        C896   1.419       .  A
C896        N897   1.435       .  S
N897        H901   1.045       .  S
N897        H902   1.046       .  S
N900        H903   1.046       .  S
N900        H904   1.046       .  S
C905        C906   1.407       .  A
C905        C910   1.407       .  A
C905        H912   1.077       .  S
C906        C907   1.414       .  A
C907        C908   1.403       .  A
C907        N914   1.433       .  S
C908        C909   1.409       .  A
C908        H913   1.084       .  S
C909        C910   1.420       .  A
C910        N911   1.428       .  S
N911        H915   1.046       .  S
N911        H916   1.046       .  S
N914        H917   1.046       .  S
N914        H918   1.046       .  S
C919        C920   1.400       .  A
C919        C924   1.402       .  A
C919        H926   1.084       .  S
C920        C921   1.416       .  A
C921        C922   1.403       .  A
C921        N928   1.439       .  S
C922        C923   1.401       .  A
C922        H927   1.084       .  S
C923        C924   1.407       .  A
C924        N925   1.436       .  S
N925        H929   1.046       .  S
N925        H930   1.045       .  S
N928        H931   1.043       .  S
N928        H932   1.045       .  S
C933        C934   1.404       .  A
C933        C938   1.409       .  A
C933        H940   1.084       .  S
C934        C935   1.411       .  A
C935        C936   1.401       .  A
C935        N942   1.438       .  S
C936        C937   1.403       .  A
C936        H941   1.084       .  S
C937        C938   1.414       .  A
C938        N939   1.437       .  S
N939        H943   1.046       .  S
N939       H1904   1.046       .  S
N942        H945   1.045       .  S
N942        H946   1.045       .  S
H944       N1899   1.048       .  S
C947        C948   1.401       .  A
C947        C952   1.400       .  A
C947        H954   1.081       .  S
C948        C949   1.412       .  A
C949        C950   1.410       .  A
C949        N956   1.438       .  S
C950        C951   1.405       .  A
C950        H955   1.084       .  S
C951        C952   1.410       .  A
C952        N953   1.439       .  S
N953        H957   1.046       .  S
N953        H958   1.045       .  S
N956        H959   1.046       .  S
N956        H960   1.045       .  S
C961        C962   1.544       .  S
C961        C967   1.556       .  S
C961        C965   1.545       .  S
C961       C1866   1.537       .  S
C962        H969   1.086       .  S
C962        C963   1.366       .  D
C963        C964   1.528       .  S
C963       C1894   1.483       .  S
C964        C968   1.531       .  S
C964        C966   1.523       .  S
C964        H970   1.111       .  S
C965        H971   1.086       .  S
C965        C966   1.360       .  D
C966       C1880   1.470       .  S
C967        H972   1.082       .  S
C967        C968   1.370       .  D
C968       C1908   1.487       .  S
C973        C974   1.543       .  S
C973        C979   1.536       .  S
C973        C977   1.554       .  S
C973       C1852   1.535       .  S
C974        H981   1.084       .  S
C974        C975   1.370       .  D
C975        C976   1.540       .  S
C975       C1824   1.495       .  S
C976        C980   1.531       .  S
C976        C978   1.535       .  S
C976        H982   1.108       .  S
C977        H983   1.080       .  S
C977        C978   1.369       .  D
C978       C1838   1.494       .  S
C979        H984   1.087       .  S
C979        C980   1.355       .  D
C980       C1883   1.472       .  S
C985        C986   1.548       .  S
C985        C991   1.553       .  S
C985        C989   1.547       .  S
C985       C1869   1.542       .  S
C986        H993   1.086       .  S
C986        C987   1.363       .  D
C987        C988   1.529       .  S
C987       C1782   1.485       .  S
C988        C992   1.524       .  S
C988        C990   1.532       .  S
C988        H994   1.111       .  S
C989        H995   1.086       .  S
C989        C990   1.368       .  D
C990       C1796   1.489       .  S
C991        H996   1.078       .  S
C991        C992   1.365       .  D
C992       C1810   1.478       .  S
C997        C998   1.546       .  S
C997       C1003   1.544       .  S
C997       C1001   1.544       .  S
C997       C1771   1.538       .  S
C998       H1005   1.083       .  S
C998        C999   1.366       .  D
C999       C1000   1.535       .  S
C999       C1754   1.487       .  S
C1000      C1004   1.532       .  S
C1000      C1002   1.535       .  S
C1000      H1006   1.110       .  S
C1001      H1007   1.084       .  S
C1001      C1002   1.362       .  D
C1002      C1740   1.481       .  S
C1003      H1008   1.086       .  S
C1003      C1004   1.367       .  D
C1004      C1785   1.488       .  S
C1009      C1010   1.558       .  S
C1009      C1015   1.542       .  S
C1009      C1013   1.544       .  S
C1009      C1855   1.542       .  S
C1010      H1017   1.076       .  S
C1010      C1011   1.366       .  D
C1011      C1012   1.522       .  S
C1011      C1726   1.478       .  S
C1012      C1016   1.528       .  S
C1012      C1014   1.530       .  S
C1012      H1018   1.110       .  S
C1013      H1019   1.085       .  S
C1013      C1014   1.366       .  D
C1014      C1712   1.485       .  S
C1015      H1020   1.087       .  S
C1015      C1016   1.361       .  D
C1016      C1698   1.472       .  S
C1021      C1022   1.548       .  S
C1021      C1027   1.555       .  S
C1021      C1025   1.536       .  S
C1021      C1768   1.536       .  S
C1022      H1029   1.084       .  S
C1022      C1023   1.365       .  D
C1023      C1024   1.529       .  S
C1023      C1687   1.476       .  S
C1024      C1028   1.534       .  S
C1024      C1026   1.528       .  S
C1024      H1030   1.108       .  S
C1025      H1031   1.086       .  S
C1025      C1026   1.359       .  D
C1026      C1701   1.479       .  S
C1027      H1032   1.085       .  S
C1027      C1028   1.372       .  D
C1028      C1670   1.494       .  S
C1033      C1034   1.541       .  S
C1033      C1039   1.556       .  S
C1033      C1037   1.545       .  S
C1033      C1614   1.537       .  S
C1034      H1041   1.086       .  S
C1034      C1035   1.361       .  D
C1035      C1036   1.527       .  S
C1035      C1656   1.473       .  S
C1036      C1040   1.533       .  S
C1036      C1038   1.529       .  S
C1036      H1042   1.110       .  S
C1037      H1043   1.085       .  S
C1037      C1038   1.363       .  D
C1038      C1631   1.479       .  S
C1039      H1044   1.081       .  S
C1039      C1040   1.373       .  D
C1040      C1645   1.496       .  S
C1045      C1046   1.546       .  S
C1045      C1051   1.546       .  S
C1045      C1049   1.552       .  S
C1045      C1617   1.542       .  S
C1046      H1053   1.086       .  S
C1046      C1047   1.370       .  D
C1047      C1048   1.537       .  S
C1047      C1586   1.498       .  S
C1048      C1052   1.536       .  S
C1048      C1050   1.532       .  S
C1048      H1054   1.107       .  S
C1049      H1055   1.079       .  S
C1049      C1050   1.362       .  D
C1050      C1600   1.481       .  S
C1051      H1056   1.085       .  S
C1051      C1052   1.364       .  D
C1052      C1572   1.489       .  S
C1057      C1058   1.546       .  S
C1057      C1063   1.548       .  S
C1057      C1061   1.538       .  S
C1057      C1558   1.539       .  S
C1058      H1065   1.082       .  S
C1058      C1059   1.362       .  D
C1059      C1060   1.536       .  S
C1059      C1530   1.475       .  S
C1060      C1064   1.537       .  S
C1060      C1062   1.536       .  S
C1060      H1066   1.104       .  S
C1061      H1067   1.086       .  S
C1061      C1062   1.368       .  D
C1062      C1544   1.493       .  S
C1063      H1068   1.085       .  S
C1063      C1064   1.368       .  D
C1064      C1575   1.496       .  S
C1069      C1070   1.552       .  S
C1069      C1075   1.546       .  S
C1069      C1073   1.547       .  S
C1069      C1561   1.538       .  S
C1070      H1077   1.084       .  S
C1070      C1071   1.366       .  D
C1071      C1072   1.531       .  S
C1071      C1516   1.482       .  S
C1072      C1076   1.533       .  S
C1072      C1074   1.530       .  S
C1072      H1078   1.110       .  S
C1073      H1079   1.086       .  S
C1073      C1074   1.363       .  D
C1074      C1488   1.483       .  S
C1075      H1080   1.086       .  S
C1075      C1076   1.367       .  D
C1076      C1502   1.490       .  S
C1081      C1082   1.540       .  S
C1081      C1087   1.544       .  S
C1081      C1085   1.552       .  S
C1081      C1446   1.533       .  S
C1082      H1089   1.086       .  S
C1082      C1083   1.365       .  D
C1083      C1084   1.533       .  S
C1083      C1460   1.485       .  S
C1084      C1088   1.531       .  S
C1084      C1086   1.530       .  S
C1084      H1090   1.109       .  S
C1085      H1091   1.081       .  S
C1085      C1086   1.366       .  D
C1086      C1477   1.485       .  S
C1087      H1092   1.085       .  S
C1087      C1088   1.363       .  D
C1088      C1491   1.481       .  S
C1093      C1094   1.544       .  S
C1093      C1099   1.542       .  S
C1093      C1097   1.557       .  S
C1093      C1449   1.541       .  S
C1094      H1101   1.087       .  S
C1094      C1095   1.359       .  D
C1095      C1096   1.527       .  S
C1095      C1628   1.474       .  S
C1096      C1100   1.533       .  S
C1096      C1098   1.525       .  S
C1096      H1102   1.111       .  S
C1097      H1103   1.076       .  S
C1097      C1098   1.367       .  D
C1098      C1421   1.483       .  S
C1099      H1104   1.086       .  S
C1099      C1100   1.367       .  D
C1100      C1435   1.487       .  S
In1105     O1107   2.264       .  S
In1105     O1108   2.252   1_556  S
In1105     O1110   2.267       .  S
In1105     O1112   2.253       .  S
In1105     O1113   2.288       .  S
In1105     O1114   2.241       .  S
In1105     O1117   2.230       .  S
C1106      O1112   1.263       .  A
C1106      O1114   1.262       .  A
C1106      C1262   1.468       .  S
O1107      C1115   1.262       .  A
O1108      C1115   1.261   1_554  A
C1109      O1116   1.259       .  A
C1109      C1659   1.481       .  S
C1111      O1113   1.262       .  A
C1111      O1117   1.256       .  A
C1111      C1245   1.470       .  S
In1118     O1120   2.261       .  S
In1118     O1121   2.258       .  S
In1118     O1123   2.264       .  S
In1118     O1125   2.263       .  S
In1118     O1126   2.292       .  S
In1118     O1127   2.244       .  S
In1118     O1130   2.202       .  S
C1119      O1125   1.263       .  A
C1119      O1127   1.260       .  A
C1119      C1275   1.470       .  S
O1120      C1128   1.256       .  A
O1121      C1128   1.257       .  A
C1122      O1123   1.266       .  A
C1124      O1126   1.265       .  A
C1124      O1130   1.256       .  A
C1124      C1193   1.464       .  S
In1131     O1133   2.202       .  S
In1131     O1134   2.272   1_556  S
In1131     O1136   2.245       .  S
In1131     O1138   2.255       .  S
In1131     O1139   2.266       .  S
In1131     O1140   2.241       .  S
In1131     O1143   2.213       .  S
C1132      O1138   1.261       .  A
C1132      O1140   1.260       .  A
C1132      C1288   1.465       .  S
O1133      C1141   1.259   1_556  A
O1134      C1141   1.264       .  A
C1135      O1142   1.263       .  A
C1135      C1547   1.484       .  S
C1137      O1139   1.264       .  A
C1137      O1143   1.258       .  A
C1137      C1167   1.462       .  S
In1144     O1146   2.212       .  S
In1144     O1147   2.282       .  S
In1144     O1149   2.250       .  S
In1144     O1151   2.242       .  S
In1144     O1152   2.277       .  S
In1144     O1153   2.245       .  S
In1144     O1156   2.219       .  S
C1145      O1151   1.261       .  A
C1145      O1153   1.261       .  A
C1145      C1301   1.464       .  S
O1146      C1154   1.257       .  A
O1147      C1154   1.265       .  A
C1148      O1155   1.263   1_554  A
C1148      C1897   1.481   1_554  S
C1150      O1152   1.265       .  A
C1150      O1156   1.258       .  A
C1150      C1249   1.467       .  S
In1157     O1159   2.212       .  S
In1157     O1160   2.265       .  S
In1157     O1162   2.259       .  S
In1157     O1164   2.240       .  S
In1157     O1165   2.274       .  S
In1157     O1166   2.252       .  S
In1157     O1169   2.213       .  S
C1158      O1164   1.260       .  A
C1158      O1166   1.260       .  A
C1158      C1314   1.464       .  S
O1159      C1167   1.259       .  A
O1160      C1167   1.265       .  A
C1161      O1168   1.263       .  A
C1161      C1589   1.487       .  S
C1163      O1165   1.264       .  A
C1163      O1169   1.258       .  A
In1170     O1172   2.227       .  S
In1170     O1173   2.278       .  S
In1170     O1175   2.268       .  S
In1170     O1177   2.256       .  S
In1170     O1178   2.273       .  S
In1170     O1179   2.253       .  S
In1170     O1182   2.218       .  S
C1171      O1177   1.261       .  A
C1171      O1179   1.260       .  A
C1171      C1327   1.469       .  S
O1172      C1180   1.258       .  A
O1173      C1180   1.262       .  A
C1174      O1175   1.264       .  A
C1176      O1178   1.264       .  A
C1176      O1182   1.260       .  A
C1180      C1228   1.467       .  S
In1183     O1185   2.197       .  S
In1183     O1186   2.287       .  S
In1183     O1188   2.281       .  S
In1183     O1190   2.242       .  S
In1183     O1191   2.241       .  S
In1183     O1192   2.249       .  S
In1183     O1195   2.249       .  S
C1184      O1190   1.262       .  A
C1184      O1192   1.263       .  A
C1184      C1340   1.467       .  S
O1185      C1193   1.257       .  A
O1186      C1193   1.266       .  A
C1187      O1188   1.263       .  A
C1189      O1191   1.258       .  A
C1189      O1195   1.259       .  A
In1196     O1198   2.208       .  S
In1196     O1199   2.286       .  S
In1196     O1201   2.272       .  S
In1196     O1203   2.245       .  S
In1196     O1204   2.262   1_556  S
In1196     O1205   2.244       .  S
In1196     O1208   2.252       .  S
C1197      O1203   1.262       .  A
C1197      O1205   1.262       .  A
C1197      C1353   1.466       .  S
O1198      C1206   1.257       .  A
O1199      C1206   1.265       .  A
C1200      O1207   1.259       .  A
C1200      C1505   1.488       .  S
C1202      O1204   1.259   1_556  A
C1202      O1208   1.258       .  A
C1206      C1215   1.465       .  S
In1209     O1211   2.203       .  S
In1209     O1212   2.291       .  S
In1209     O1214   2.227       .  S
In1209     O1216   2.237       .  S
In1209     O1217   2.282       .  S
In1209     O1218   2.255       .  S
In1209     O1221   2.202       .  S
C1210      O1216   1.259       .  A
C1210      O1218   1.262       .  A
C1210      C1366   1.465       .  S
O1211      C1219   1.254       .  A
O1212      C1219   1.266       .  A
C1213      O1220   1.263       .  A
C1213      C1474   1.469       .  S
C1215      O1217   1.268       .  A
C1215      O1221   1.258       .  A
In1222     O1224   2.221       .  S
In1222     O1225   2.293       .  S
In1222     O1227   2.255       .  S
In1222     O1229   2.247       .  S
In1222     O1230   2.275       .  S
In1222     O1231   2.265       .  S
In1222     O1234   2.213       .  S
C1223      O1229   1.260       .  A
C1223      O1231   1.261       .  A
C1223      C1379   1.470       .  S
O1224      C1232   1.257       .  A
O1225      C1232   1.265       .  A
C1226      O1233   1.261   1_554  A
C1226      C1715   1.471   1_554  S
C1228      O1230   1.268       .  A
C1228      O1234   1.259       .  A
In1235     O1237   2.221       .  S
In1235     O1238   2.287       .  S
In1235     O1240   2.222       .  S
In1235     O1242   2.244       .  S
In1235     O1243   2.293       .  S
In1235     O1244   2.252       .  S
In1235     O1247   2.210       .  S
C1236      O1242   1.259       .  A
C1236      O1244   1.261       .  A
C1236      C1392   1.466       .  S
O1237      C1245   1.257       .  A
O1238      C1245   1.266       .  A
C1239      O1246   1.264       .  A
C1239      C1418   1.482       .  S
C1241      O1243   1.267       .  A
C1241      O1247   1.257       .  A
In1248     O1250   2.265       .  S
In1248     O1251   2.247       .  S
In1248     O1259   2.216       .  S
In1248     O1253   2.294       .  S
In1248     O1255   2.277       .  S
In1248     O1256   2.258       .  S
In1248     O1257   2.219       .  S
In1248     O1260   2.223       .  S
C1249      O1255   1.266       .  A
C1249      O1257   1.258       .  A
O1250      C1258   1.261       .  A
O1251      C1258   1.260       .  A
C1252      O1259   1.256       .  A
C1252      O1253   1.264       .  A
C1254      O1256   1.265       .  A
C1254      O1260   1.262       .  A
C1258      C1405   1.470       .  S
In1261     O1263   2.216       .  S
In1261     O1264   2.267       .  S
In1261     O1272   2.232       .  S
In1261     O1266   2.247       .  S
In1261     O1268   2.257       .  S
In1261     O1269   2.282       .  S
In1261     O1270   2.248       .  S
In1261     O1273   2.201       .  S
C1262      O1268   1.261       .  A
C1262      O1270   1.260       .  A
O1263      C1271   1.259       .  A
O1264      C1271   1.264       .  A
C1265      O1272   1.263       .  A
C1265      O1266   1.266       .  A
C1265      C1642   1.488       .  S
C1267      O1269   1.265       .  A
C1267      O1273   1.257       .  A
C1267      C1280   1.462   1_545  S
C1271      C1397   1.462       .  S
In1274     O1276   2.215       .  S
In1274     O1277   2.266       .  S
In1274     O1285   2.237       .  S
In1274     O1279   2.244       .  S
In1274     O1281   2.260       .  S
In1274     O1282   2.278       .  S
In1274     O1283   2.249       .  S
In1274     O1286   2.206       .  S
C1275      O1281   1.261       .  A
C1275      O1283   1.261       .  A
O1276      C1284   1.258       .  A
O1277      C1284   1.264       .  A
C1278      O1285   1.262       .  A
C1278      O1279   1.265       .  A
C1278      C1757   1.484       .  S
C1280      O1282   1.264       .  A
C1280      O1286   1.258       .  A
C1284      C1345   1.463       .  S
In1287     O1289   2.227       .  S
In1287     O1290   2.291       .  S
In1287     O1298   2.241       .  S
In1287     O1292   2.267       .  S
In1287     O1294   2.264       .  S
In1287     O1295   2.242       .  S
In1287     O1296   2.248       .  S
In1287     O1299   2.259       .  S
C1288      O1294   1.258       .  A
C1288      O1296   1.257       .  A
O1289      C1297   1.254       .  A
O1290      C1297   1.262       .  A
C1291      O1298   1.258       .  A
C1291      O1292   1.260       .  A
C1291      C1533   1.484       .  S
C1293      O1295   1.262       .  A
C1293      O1299   1.264       .  A
C1293      C1306   1.469   1_655  S
C1297      C1319   1.469       .  S
In1300     O1302   2.214       .  S
In1300     O1303   2.291       .  S
In1300     O1311   2.221       .  S
In1300     O1305   2.265       .  S
In1300     O1307   2.239       .  S
In1300     O1308   2.253       .  S
In1300     O1309   2.243       .  S
In1300     O1312   2.262       .  S
C1301      O1307   1.263       .  A
C1301      O1309   1.263       .  A
O1302      C1310   1.257       .  A
O1303      C1310   1.266       .  A
C1304      O1311   1.258       .  A
C1304      O1305   1.263       .  A
C1304      C1911   1.476       .  S
C1306      O1308   1.259       .  A
C1306      O1312   1.259       .  A
C1310      C1410   1.470       .  S
In1313     O1315   2.243       .  S
In1313     O1316   2.249       .  S
In1313     O1324   2.249       .  S
In1313     O1318   2.262       .  S
In1313     O1320   2.238       .  S
In1313     O1321   2.289       .  S
In1313     O1322   2.252       .  S
In1313     O1325   2.228       .  S
C1314      O1320   1.261       .  A
C1314      O1322   1.263       .  A
O1315      C1323   1.260       .  A
O1316      C1323   1.261       .  A
C1317      O1324   1.259       .  A
C1317      O1318   1.261       .  A
C1317      C1603   1.479       .  S
C1319      O1321   1.261       .  A
C1319      O1325   1.255       .  A
C1323      C1336   1.461   1_545  S
In1326     O1328   2.244       .  S
In1326     O1329   2.245       .  S
In1326     O1337   2.224       .  S
In1326     O1331   2.265       .  S
In1326     O1333   2.252       .  S
In1326     O1334   2.283       .  S
In1326     O1335   2.251       .  S
In1326     O1338   2.203       .  S
C1327      O1333   1.261       .  A
C1327      O1335   1.261       .  A
O1328      C1336   1.259       .  A
O1329      C1336   1.260       .  A
C1330      O1337   1.259       .  A
C1330      O1331   1.263       .  A
C1330      C1684   1.474       .  S
C1332      O1334   1.264       .  A
C1332      O1338   1.255       .  A
C1332      C1388   1.462       .  S
In1339     O1341   2.204       .  S
In1339     O1342   2.277       .  S
In1339     O1350   2.226       .  S
In1339     O1344   2.244       .  S
In1339     O1346   2.245       .  S
In1339     O1347   2.269       .  S
In1339     O1348   2.254       .  S
In1339     O1351   2.216       .  S
C1340      O1346   1.260       .  A
C1340      O1348   1.261       .  A
O1341      C1349   1.257       .  A
O1342      C1349   1.266       .  A
C1343      O1350   1.263       .  A
C1343      O1344   1.265       .  A
C1343      C1813   1.479       .  S
C1345      O1347   1.264       .  A
C1345      O1351   1.258       .  A
C1349      C1362   1.462   1_455  S
In1352     O1354   2.214       .  S
In1352     O1355   2.279       .  S
In1352     O1363   2.231       .  S
In1352     O1357   2.260       .  S
In1352     O1359   2.253       .  S
In1352     O1360   2.273       .  S
In1352     O1361   2.250       .  S
In1352     O1364   2.230       .  S
C1353      O1359   1.260       .  A
C1353      O1361   1.259       .  A
O1354      C1362   1.257       .  A
O1355      C1362   1.263       .  A
C1356      O1363   1.263       .  A
C1356      O1357   1.264       .  A
C1356      C1519   1.483       .  S
C1358      O1360   1.262       .  A
C1358      O1364   1.259       .  A
C1358      C1375   1.468       .  S
In1365     O1367   2.221       .  S
In1365     O1368   2.275       .  S
In1365     O1376   2.206       .  S
In1365     O1370   2.248       .  S
In1365     O1372   2.243       .  S
In1365     O1373   2.285       .  S
In1365     O1374   2.253       .  S
In1365     O1377   2.209       .  S
C1366      O1372   1.260       .  A
C1366      O1374   1.261       .  A
O1367      C1375   1.258       .  A
O1368      C1375   1.266       .  A
C1369      O1376   1.262       .  A
C1369      O1370   1.267       .  A
C1369      C1463   1.480       .  S
C1371      O1373   1.266       .  A
C1371      O1377   1.257       .  A
C1371      C1384   1.466       .  S
In1378     O1380   2.204       .  S
In1378     O1381   2.281       .  S
In1378     O1389   2.242       .  S
In1378     O1383   2.230       .  S
In1378     O1385   2.242       .  S
In1378     O1386   2.284       .  S
In1378     O1387   2.269       .  S
In1378     O1390   2.207       .  S
C1379      O1385   1.258       .  A
C1379      O1387   1.263       .  A
O1380      C1388   1.256       .  A
O1381      C1388   1.265       .  A
C1382      O1389   1.263       .  A
C1382      O1383   1.262       .  A
C1382      C1729   1.478       .  S
C1384      O1386   1.265       .  A
C1384      O1390   1.257       .  A
In1391     O1393   2.220       .  S
In1391     O1394   2.284       .  S
In1391     O1402   2.233       .  S
In1391     O1396   2.251       .  S
In1391     O1398   2.253       .  S
In1391     O1399   2.261       .  S
In1391     O1400   2.250       .  S
In1391     O1403   2.212       .  S
C1392      O1398   1.260       .  A
C1392      O1400   1.259       .  A
O1393      C1401   1.258       .  A
O1394      C1401   1.262       .  A
C1395      O1402   1.261       .  A
C1395      O1396   1.264       .  A
C1395      C1432   1.472       .  S
C1397      O1399   1.266       .  A
C1397      O1403   1.260       .  A
C1401      C1414   1.467       .  S
In1404     O1406   2.210       .  S
In1404     O1407   2.287       .  S
In1404     O1415   2.234       .  S
In1404     O1409   2.245       .  S
In1404     O1411   2.242       .  S
In1404     O1412   2.288       .  S
In1404     O1413   2.264       .  S
In1404     O1416   2.213       .  S
C1405      O1411   1.260       .  A
C1405      O1413   1.262       .  A
O1406      C1414   1.256       .  A
O1407      C1414   1.267       .  A
C1408      O1415   1.264       .  A
C1408      O1409   1.265       .  A
C1408      C1841   1.486       .  S
C1410      O1412   1.267       .  A
C1410      O1416   1.258       .  A
C1417      C1418   1.405       .  A
C1417      C1422   1.402       .  A
C1417      H1424   1.084       .  S
C1418      C1419   1.413       .  A
C1419      C1420   1.403       .  A
C1419      N1426   1.438       .  S
C1420      C1421   1.403       .  A
C1420      H1425   1.084       .  S
C1421      C1422   1.418       .  A
C1422      N1423   1.440       .  S
N1423      H1427   1.046       .  S
N1423      H1428   1.041       .  S
N1426      H1429   1.046       .  S
N1426      H1430   1.046       .  S
C1431      C1432   1.401       .  A
C1431      C1436   1.406       .  A
C1431      H1438   1.084       .  S
C1432      C1433   1.417       .  A
C1433      C1434   1.400       .  A
C1433      N1440   1.440       .  S
C1434      C1435   1.404       .  A
C1434      H1439   1.084       .  S
C1435      C1436   1.413       .  A
C1436      N1437   1.437       .  S
N1437      H1441   1.046       .  S
N1437      H1442   1.046       .  S
N1440      H1443   1.043       .  S
N1440      H1444   1.045       .  S
C1445      C1446   1.407       .  A
C1445      C1450   1.408       .  A
C1445      H1452   1.076       .  S
C1446      C1447   1.412       .  A
C1447      C1448   1.399       .  A
C1447      N1454   1.434       .  S
C1448      C1449   1.410       .  A
C1448      H1453   1.084       .  S
C1449      C1450   1.421       .  A
C1450      N1451   1.433       .  S
N1451      H1455   1.046       .  S
N1451      H1456   1.046       .  S
N1454      H1457   1.046       .  S
N1454      H1458   1.046       .  S
C1459      C1460   1.402       .  A
C1459      C1464   1.393       .  A
C1459      H1466   1.084       .  S
C1460      C1461   1.410       .  A
C1461      C1462   1.406       .  A
C1461      N1468   1.432       .  S
C1462      C1463   1.406       .  A
C1462      H1467   1.084       .  S
C1463      C1464   1.417       .  A
C1464      N1465   1.433       .  S
N1465      H1469   1.045       .  S
N1465      H1470   1.045       .  S
N1468      H1471   1.045       .  S
N1468      H1472   1.046       .  S
C1473      C1474   1.400       .  A
C1473      C1478   1.402       .  A
C1473      H1480   1.084       .  S
C1474      C1475   1.409       .  A
C1475      C1476   1.405       .  A
C1475      N1482   1.438       .  S
C1476      C1477   1.404       .  A
C1476      H1481   1.083       .  S
C1477      C1478   1.411       .  A
C1478      N1479   1.433       .  S
N1479      H1483   1.046       .  S
N1479      H1484   1.045       .  S
N1482      H1485   1.045       .  S
N1482      H1486   1.046       .  S
C1487      C1488   1.404       .  A
C1487      C1492   1.406       .  A
C1487      H1494   1.084       .  S
C1488      C1489   1.409       .  A
C1489      C1490   1.397       .  A
C1489      N1496   1.431       .  S
C1490      C1491   1.400       .  A
C1490      H1495   1.084       .  S
C1491      C1492   1.411       .  A
C1492      N1493   1.432       .  S
N1493      H1497   1.046       .  S
N1493      H1498   1.046       .  S
N1496      H1499   1.046       .  S
N1496      H1500   1.046       .  S
C1501      C1502   1.402       .  A
C1501      C1506   1.402       .  A
C1501      H1508   1.084       .  S
C1502      C1503   1.413       .  A
C1503      C1504   1.415       .  A
C1503      N1510   1.437       .  S
C1504      C1505   1.408       .  A
C1504      H1509   1.084       .  S
C1505      C1506   1.412       .  A
C1506      N1507   1.438       .  S
N1507      H1511   1.045       .  S
N1507      H1512   1.046       .  S
N1510      H1513   1.045       .  S
N1510      H1514   1.046       .  S
C1515      C1516   1.405       .  A
C1515      C1520   1.411       .  A
C1515      H1522   1.084       .  S
C1516      C1517   1.407       .  A
C1517      C1518   1.402       .  A
C1517      N1524   1.438       .  S
C1518      C1519   1.404       .  A
C1518      H1523   1.084       .  S
C1519      C1520   1.414       .  A
C1520      N1521   1.437       .  S
N1521      H1525   1.046       .  S
N1521      H1526   1.046       .  S
N1524      H1527   1.045       .  S
N1524      H1528   1.045       .  S
C1529      C1530   1.397       .  A
C1529      C1534   1.404       .  A
C1529      H1536   1.083       .  S
C1530      C1531   1.407       .  A
C1531      C1532   1.408       .  A
C1531      N1538   1.438       .  S
C1532      C1533   1.408       .  A
C1532      H1537   1.083       .  S
C1533      C1534   1.415       .  A
C1534      N1535   1.438       .  S
N1535      H1539   1.046       .  S
N1535      H1540   1.045       .  S
N1538      H1541   1.044       .  S
N1538      H1542   1.046       .  S
C1543      C1544   1.406       .  A
C1543      C1548   1.408       .  A
C1543      H1550   1.083       .  S
C1544      C1545   1.412       .  A
C1545      C1546   1.402       .  A
C1545      N1552   1.432       .  S
C1546      C1547   1.404       .  A
C1546      H1551   1.084       .  S
C1547      C1548   1.413       .  A
C1548      N1549   1.437       .  S
N1552      H1555   1.046       .  S
N1552      H1556   1.046       .  S
C1557      C1558   1.409       .  A
C1557      C1562   1.406       .  A
C1557      H1564   1.083       .  S
C1558      C1559   1.421       .  A
C1559      C1560   1.404       .  A
C1559      N1566   1.436       .  S
C1560      C1561   1.409       .  A
C1560      H1565   1.081       .  S
C1561      C1562   1.418       .  A
C1562      N1563   1.438       .  S
N1563      H1567   1.045       .  S
N1563      H1568   1.045       .  S
N1566      H1569   1.043       .  S
N1566      H1570   1.045       .  S
C1571      C1572   1.400       .  A
C1571      C1576   1.397       .  A
C1571      H1578   1.081       .  S
C1572      C1573   1.414       .  A
C1573      C1574   1.409       .  A
C1573      N1580   1.437       .  S
C1574      C1575   1.409       .  A
C1574      H1579   1.083       .  S
C1575      C1576   1.412       .  A
C1576      N1577   1.429       .  S
N1577      H1581   1.046       .  S
N1577      H1582   1.046       .  S
N1580      H1583   1.046       .  S
N1580      H1584   1.045       .  S
C1585      C1586   1.409       .  A
C1585      C1590   1.415       .  A
C1585      H1592   1.083       .  S
C1586      C1587   1.412       .  A
C1587      C1588   1.396       .  A
C1587      N1594   1.429       .  S
C1588      C1589   1.400       .  A
C1588      H1593   1.084       .  S
C1589      C1590   1.415       .  A
C1590      N1591   1.437       .  S
N1594      H1597   1.046       .  S
N1594      H1598   1.046       .  S
C1599      C1600   1.401       .  A
C1599      C1604   1.406       .  A
C1599      H1606   1.084       .  S
C1600      C1601   1.416       .  A
C1601      C1602   1.405       .  A
C1601      N1608   1.438       .  S
C1602      C1603   1.404       .  A
C1602      H1607   1.084       .  S
C1603      C1604   1.410       .  A
C1604      N1605   1.438       .  S
N1605      H1609   1.046       .  S
N1605      H1610   1.045       .  S
N1608      H1611   1.044       .  S
N1608      H1612   1.045       .  S
C1613      C1614   1.408       .  A
C1613      C1618   1.408       .  A
C1613      H1620   1.079       .  S
C1614      C1615   1.415       .  A
C1615      C1616   1.402       .  A
C1615      N1622   1.433       .  S
C1616      C1617   1.408       .  A
C1616      H1621   1.084       .  S
C1617      C1618   1.419       .  A
C1618      N1619   1.430       .  S
N1619      H1623   1.046       .  S
N1619      H1624   1.046       .  S
N1622      H1625   1.045       .  S
N1622      H1626   1.046       .  S
C1627      C1628   1.402       .  A
C1627      C1632   1.404       .  A
C1627      H1634   1.084       .  S
C1628      C1629   1.406       .  A
C1629      C1630   1.395       .  A
C1629      N1636   1.432       .  S
C1630      C1631   1.402       .  A
C1630      H1635   1.083       .  S
C1631      C1632   1.410       .  A
C1632      N1633   1.432       .  S
N1633      H1637   1.046       .  S
N1633      H1638   1.045       .  S
N1636      H1639   1.046       .  S
N1636      H1640   1.046       .  S
C1641      C1642   1.405       .  A
C1641      C1646   1.406       .  A
C1641      H1648   1.084       .  S
C1642      C1643   1.415       .  A
C1643      C1644   1.406       .  A
C1643      N1650   1.438       .  S
C1644      C1645   1.406       .  A
C1644      H1649   1.082       .  S
C1645      C1646   1.411       .  A
C1646      N1647   1.432       .  S
N1647      H1651   1.046       .  S
N1647      H1652   1.045       .  S
N1650      H1653   1.046       .  S
N1650      H1654   1.046       .  S
C1655      C1656   1.401       .  A
C1655      C1660   1.402       .  A
C1655      H1662   1.084       .  S
C1656      C1657   1.403       .  A
C1657      C1658   1.402       .  A
C1657      N1664   1.432       .  S
C1658      C1659   1.405       .  A
C1658      H1663   1.084       .  S
C1659      C1660   1.417       .  A
C1660      N1661   1.432       .  S
N1661      H1665   1.046       .  S
N1661      H1666   1.045       .  S
N1664      H1667   1.045       .  S
N1664      H1668   1.045       .  S
C1669      C1670   1.407       .  A
C1669      C1674   1.413       .  A
C1669      H1676   1.083       .  S
C1670      C1671   1.412       .  A
C1671      C1672   1.396       .  A
C1671      N1678   1.431       .  S
C1672      C1673   1.400       .  A
C1672      H1677   1.084       .  S
C1673      C1674   1.416       .  A
C1674      N1675   1.437   1_556  S
N1678      H1681   1.046       .  S
N1678      H1682   1.045       .  S
C1683      C1684   1.405       .  A
C1683      C1688   1.406       .  A
C1683      H1690   1.084       .  S
C1684      C1685   1.416       .  A
C1685      C1686   1.397       .  A
C1685      N1692   1.440       .  S
C1686      C1687   1.398       .  A
C1686      H1691   1.082       .  S
C1687      C1688   1.416       .  A
C1688      N1689   1.439       .  S
N1689      H1693   1.044       .  S
N1689      H1694   1.043       .  S
N1692      H1695   1.043       .  S
N1692      H1696   1.045       .  S
C1697      C1698   1.401       .  A
C1697      C1702   1.402       .  A
C1697      H1704   1.084       .  S
C1698      C1699   1.407       .  A
C1699      C1700   1.395       .  A
C1699      N1706   1.433       .  S
C1700      C1701   1.401       .  A
C1700      H1705   1.079       .  S
C1701      C1702   1.410       .  A
C1702      N1703   1.432       .  S
N1703      H1707   1.046       .  S
N1703      H1708   1.045       .  S
N1706      H1709   1.046       .  S
N1706      H1710   1.046       .  S
C1711      C1712   1.404       .  A
C1711      C1716   1.403       .  A
C1711      H1718   1.084       .  S
C1712      C1713   1.411       .  A
C1713      C1714   1.404       .  A
C1713      N1720   1.432       .  S
C1714      C1715   1.401       .  A
C1714      H1719   1.084       .  S
C1715      C1716   1.410       .  A
N1717      H1721   1.046       .  S
N1717      H1722   1.045       .  S
N1720      H1723   1.045       .  S
N1720      H1724   1.045       .  S
C1725      C1726   1.400       .  A
C1725      C1730   1.406       .  A
C1725      H1732   1.084       .  S
C1726      C1727   1.408       .  A
C1727      C1728   1.399       .  A
C1727      N1734   1.433       .  S
C1728      C1729   1.403       .  A
C1728      H1733   1.084       .  S
C1729      C1730   1.415       .  A
C1730      N1731   1.438       .  S
N1731      H1735   1.045       .  S
N1731      H1736   1.045       .  S
N1734      H1737   1.045       .  S
N1734      H1738   1.046       .  S
C1739      C1740   1.404       .  A
C1739      C1744   1.409       .  A
C1739      H1746   1.084       .  S
C1740      C1741   1.412       .  A
C1741      C1742   1.396       .  A
C1741      N1748   1.433       .  S
C1742      C1743   1.404       .  A
C1742      H1747   1.084   1_556  S
C1743      C1744   1.412       .  A
C1744      N1745   1.437       .  S
N1745      H1749   1.046       .  S
N1748      H1751   1.046       .  S
N1748      H1752   1.042       .  S
C1753      C1754   1.403       .  A
C1753      C1758   1.406       .  A
C1753      H1760   1.084       .  S
C1754      C1755   1.416       .  A
C1755      C1756   1.399       .  A
C1755      N1762   1.433       .  S
C1756      C1757   1.404       .  A
C1756      H1761   1.084       .  S
C1757      C1758   1.415       .  A
C1758      N1759   1.438       .  S
N1759      H1763   1.046       .  S
N1759      H1764   1.045       .  S
N1762      H1765   1.045       .  S
N1762      H1766   1.043       .  S
C1767      C1768   1.408       .  A
C1767      C1772   1.407       .  A
C1767      H1774   1.081       .  S
C1768      C1769   1.418       .  A
C1769      C1770   1.404       .  A
C1769      N1776   1.432       .  S
C1770      C1771   1.409       .  A
C1770      H1775   1.083       .  S
C1771      C1772   1.419       .  A
C1772      N1773   1.437       .  S
N1773      H1777   1.045       .  S
N1773      H1778   1.046       .  S
N1776      H1779   1.046       .  S
N1776      H1780   1.046       .  S
C1781      C1782   1.402       .  A
C1781      C1786   1.403       .  A
C1781      H1788   1.084       .  S
C1782      C1783   1.412       .  A
C1783      C1784   1.409       .  A
C1783      N1790   1.437       .  S
C1784      C1785   1.404       .  A
C1784      H1789   1.083       .  S
C1785      C1786   1.413       .  A
C1786      N1787   1.437       .  S
N1787      H1791   1.045       .  S
N1787      H1792   1.045       .  S
N1790      H1793   1.046       .  S
N1790      H1794   1.046       .  S
C1795      C1796   1.403       .  A
C1795      C1800   1.401       .  A
C1795      H1802   1.084       .  S
C1796      C1797   1.413       .  A
C1797      C1798   1.412       .  A
C1797      N1804   1.437       .  S
C1798      C1799   1.405       .  A
C1798      H1803   1.084       .  S
C1799      C1800   1.412       .  A
N1801      H1805   1.046       .  S
N1801      H1806   1.046       .  S
N1804      H1807   1.046       .  S
N1804      H1808   1.046       .  S
C1809      C1810   1.400       .  A
C1809      C1814   1.402       .  A
C1809      H1816   1.084       .  S
C1810      C1811   1.409       .  A
C1811      C1812   1.407       .  A
C1811      N1818   1.437       .  S
C1812      C1813   1.405       .  A
C1812      H1817   1.084       .  S
C1813      C1814   1.414       .  A
C1814      N1815   1.439       .  S
N1815      H1819   1.046       .  S
N1815      H1820   1.046       .  S
N1818      H1821   1.045       .  S
N1818      H1822   1.046       .  S
C1823      C1824   1.405       .  A
C1823      C1828   1.398       .  A
C1823      H1830   1.080       .  S
C1824      C1825   1.415       .  A
C1825      C1826   1.406       .  A
C1825      N1832   1.432       .  S
C1826      C1827   1.402       .  A
C1826      H1831   1.084       .  S
C1827      C1828   1.415       .  A
C1828      N1829   1.440       .  S
N1829      H1833   1.046       .  S
N1832      H1835   1.046       .  S
N1832      H1836   1.046       .  S
C1837      C1838   1.406       .  A
C1837      C1842   1.409       .  A
C1837      H1844   1.083       .  S
C1838      C1839   1.414       .  A
C1839      C1840   1.404       .  A
C1839      N1846   1.437       .  S
C1840      C1841   1.404       .  A
C1840      H1845   1.083       .  S
C1841      C1842   1.414       .  A
C1842      N1843   1.438       .  S
N1843      H1847   1.046       .  S
N1843      H1848   1.045       .  S
N1846      H1849   1.046       .  S
N1846      H1850   1.045       .  S
C1851      C1852   1.406       .  A
C1851      C1856   1.408       .  A
C1851      H1858   1.074       .  S
C1852      C1853   1.413       .  A
C1853      C1854   1.400       .  A
C1853      N1860   1.434       .  S
C1854      C1855   1.410       .  A
C1854      H1859   1.084       .  S
C1855      C1856   1.422       .  A
C1856      N1857   1.433       .  S
N1857      H1861   1.045       .  S
N1857      H1862   1.046       .  S
N1860      H1863   1.046       .  S
N1860      H1864   1.046       .  S
C1865      C1866   1.408       .  A
C1865      C1870   1.408       .  A
C1865      H1872   1.078       .  S
C1866      C1867   1.414       .  A
C1867      C1868   1.402       .  A
C1867      N1874   1.433       .  S
C1868      C1869   1.408       .  A
C1868      H1873   1.084       .  S
C1869      C1870   1.419       .  A
C1870      N1871   1.429       .  S
N1871      H1875   1.046       .  S
N1871      H1876   1.046       .  S
N1874      H1877   1.046       .  S
N1874      H1878   1.046       .  S
C1879      C1880   1.400       .  A
C1879      C1884   1.401       .  A
C1879      H1886   1.084       .  S
C1880      C1881   1.416       .  A
C1881      C1882   1.402       .  A
C1881      N1888   1.439       .  S
C1882      C1883   1.401       .  A
C1882      H1887   1.084       .  S
C1883      C1884   1.406       .  A
C1884      N1885   1.437       .  S
N1885      H1889   1.045       .  S
N1885      H1890   1.046       .  S
N1888      H1891   1.043       .  S
N1888      H1892   1.046       .  S
C1893      C1894   1.403       .  A
C1893      C1898   1.409       .  A
C1893      H1900   1.083       .  S
C1894      C1895   1.411       .  A
C1895      C1896   1.401       .  A
C1895      N1902   1.438       .  S
C1896      C1897   1.403       .  A
C1896      H1901   1.084       .  S
C1897      C1898   1.414       .  A
C1898      N1899   1.437   1_556  S
N1899      H1903   1.043       .  S
N1902      H1905   1.045       .  S
N1902      H1906   1.045       .  S
C1907      C1908   1.403       .  A
C1907      C1912   1.400       .  A
C1907      H1914   1.081       .  S
C1908      C1909   1.413       .  A
C1909      C1910   1.410       .  A
C1909      N1916   1.437       .  S
C1910      C1911   1.404       .  A
C1910      H1915   1.084       .  S
C1911      C1912   1.410       .  A
C1912      N1913   1.439       .  S
N1913      H1917   1.046       .  S
N1913      H1918   1.045       .  S
N1916      H1919   1.046       .  S
N1916      H1920   1.045       .  S
