geometry optimzed in LAMMPS
_audit_creation_date              2020-11-30 
_audit_creation_method            'lammps2cif' 
_symmetry_space_group_name_H-M    'P1' 
_symmetry_Int_Tables_number       1 
_symmetry_cell_setting            triclinic 
loop_ 
_symmetry_equiv_pos_as_xyz 
  x,y,z 
_cell_length_a                    38.27409018 
_cell_length_b                    38.45667803436971 
_cell_length_c                    38.90728490494281 
_cell_angle_alpha                 89.89433182604255 
_cell_angle_beta                  90.05084496673597 
_cell_angle_gamma                 89.84059442599988 
loop_ 
_atom_site_label 
_atom_site_type_symbol 
_atom_site_fract_x 
_atom_site_fract_y 
_atom_site_fract_z 
_atom_site_charge 
C1          C  0.42264462  0.45025904  0.08955955     0.42400
N2          N  0.43484070  0.47820966  0.04354744     0.01300
C3          C  0.58159257  0.45587316  0.43874162    -0.06600
H4          H  0.60660218  0.48208574  0.06770888     0.06800
C5          C  0.54850330  0.59625322  0.05114971    -0.06900
Co6        Co  0.49454612  0.44536187  0.00648519     0.74200
N7          N  0.56041370  0.47080274  0.03810363    -0.26100
Co8        Co  0.56594120  0.50636192  0.49928569     0.74100
C9          C  0.57961401  0.58332190  0.06825399     0.42500
N10         N  0.46454900  0.57690468  0.03129289     0.00900
N11         N  0.56469447  0.54694465  0.02963115     0.01000
N12         N  0.53913902  0.41573646  0.44670394    -0.46900
H13         H  0.46691446  0.41098035  0.08056396     0.06800
N14         N  0.53488684  0.44820661  0.04204277     0.01300
N15         N  0.56516306  0.54072791  0.45815813     0.01100
C16         C  0.57839485  0.57089857  0.41382833     0.42700
N17         N  0.43874133  0.55451344  0.03454924    -0.25500
C18         C  0.45167188  0.41837535  0.44897128    -0.06500
N19         N  0.41216222  0.47674608  0.06914856    -0.46600
N20         N  0.58860762  0.54358518  0.43330560    -0.46900
C21         C  0.42050344  0.43188544  0.43168772     0.42400
N22         N  0.53734397  0.44079969  0.46982548     0.01300
N23         N  0.44000483  0.54390142  0.46090062    -0.25600
N24         N  0.45834674  0.45315961  0.04509439    -0.26100
N25         N  0.46501193  0.56715255  0.45809660     0.01000
H26         H  0.39485375  0.53248560  0.42971029     0.06800
H27         H  0.53226634  0.60828576  0.42254070     0.06900
N28         N  0.56206574  0.46435740  0.46601840    -0.26100
N29         N  0.54111993  0.57191280  0.02797731    -0.25700
N30         N  0.43679479  0.46823105  0.46977342     0.01300
C31         C  0.56819158  0.43969119  0.08542778     0.42700
C32         C  0.41745418  0.56520182  0.05963690    -0.07000
N33         N  0.54108625  0.56519705  0.45672387    -0.25700
H34         H  0.53435792  0.62035222  0.05470214     0.06900
N35         N  0.53874369  0.42870498  0.06983645    -0.46900
H36         H  0.39344482  0.55275033  0.06747050     0.06800
C37         C  0.43350471  0.57516791  0.41355727     0.42500
C38         C  0.45285372  0.43432828  0.07336814    -0.06500
Co39       Co  0.43421731  0.51224966  0.00208740     0.73800
N40         N  0.46218749  0.60316720  0.05314901    -0.46700
C41         C  0.56589411  0.42403112  0.42585564     0.42800
N42         N  0.41255458  0.46255864  0.44627416    -0.46600
Co43       Co  0.50380789  0.57115682  0.49452135     0.73900
C44         C  0.54696311  0.58523188  0.42939739    -0.07000
C45         C  0.58288261  0.46729785  0.06420734    -0.06500
N46         N  0.46000058  0.44293380  0.47199086    -0.26100
N47         N  0.58881873  0.55302352  0.05321975    -0.46800
H48         H  0.60409713  0.46998391  0.42940188     0.06800
C49         C  0.41849299  0.54719418  0.43398251    -0.07000
Cl50       Cl  0.49804861  0.50821501  0.99947455    -0.50000
C51         C  0.43337649  0.59706476  0.07205203     0.42600
H52         H  0.46545651  0.39413276  0.44506500     0.06800
N53         N  0.46169416  0.58691391  0.43055259    -0.46700
C54         C  0.57742065  0.91163222  0.07814485     0.42400
N55         N  0.56230706  0.95114095  0.04182205     0.01300
C56         C  0.41230147  0.05336458  0.04638973    -0.06600
H57         H  0.38477583  0.93155312  0.02918730     0.06800
C58         C  0.45410168  0.93096742  0.41189329    -0.06900
Co59       Co  0.49881234  0.99042341  0.06477417     0.74200
N60         N  0.43506651  0.95544789  0.03680854    -0.26100
Co61       Co  0.43793956  0.99382302  0.99868960     0.74100
C62         C  0.41991960  0.91723531  0.42269212     0.42500
N63         N  0.54418562  0.95298982  0.43933004     0.00900
N64         N  0.43925133  0.95317149  0.46072730     0.01000
N65         N  0.45155091  0.04961060  0.08970722    -0.46900
H66         H  0.53005463  0.92369110  0.11269409     0.06800
N67         N  0.45792294  0.95407878  0.06224482     0.01300
N68         N  0.43955136  0.02821406  0.46100495     0.01100
C69         C  0.42143510  0.06456468  0.42259188     0.42700
N70         N  0.56769406  0.95355608  0.46423571    -0.25500
C71         C  0.54860155  0.04878192  0.09188746    -0.06500
N72         N  0.58701773  0.92800568  0.04892426    -0.46600
N73         N  0.41328595  0.04912405  0.45276349    -0.46900
C74         C  0.58247226  0.06308489  0.08157903     0.42400
N75         N  0.46049271  0.02932842  0.06360315     0.01300
N76         N  0.56660142  0.02845500  0.46495080    -0.25600
N77         N  0.53721044  0.95162583  0.06509571    -0.26100
N78         N  0.54380424  0.02824927  0.43941908     0.01000
H79         H  0.61547635  0.05466181  0.47264598     0.06800
H80         H  0.46960593  0.05364017  0.38851613     0.06900
N81         N  0.43754230  0.03053847  0.03823224    -0.26100
N82         N  0.46391252  0.95303009  0.43696889    -0.25700
N83         N  0.56468713  0.02683765  0.04328360     0.01300
C84         C  0.41719445  0.91839408  0.07733607     0.42700
C85         C  0.59395969  0.93197292  0.45597781    -0.07000
N86         N  0.46437581  0.02797623  0.43742795    -0.25700
H87         H  0.46761644  0.92747751  0.38773413     0.06900
N88         N  0.44771998  0.93300265  0.08735688    -0.46900
H89         H  0.61800359  0.92919728  0.47036071     0.06800
C90         C  0.58404132  0.06382089  0.42285885     0.42500
C91         C  0.54452239  0.92761969  0.08914018    -0.06500
Co92       Co  0.56540321  0.98971310  0.00410125     0.73800
N93         N  0.55374229  0.93251650  0.41355308    -0.46700
C94         C  0.42150462  0.06578395  0.08064064     0.42800
N95         N  0.59088513  0.04779011  0.05145078    -0.46600
Co96       Co  0.50414229  0.99045990  0.43793801     0.73900
C97         C  0.45547499  0.05033101  0.41234605    -0.07000
C98         C  0.40869977  0.93358437  0.04383713    -0.06500
N99         N  0.53967471  0.02669709  0.06667339    -0.26100
N100        N  0.41262651  0.93275683  0.45292537    -0.46800
H101        H  0.38846300  0.05752467  0.03201068     0.06800
C102        C  0.59221581  0.05088462  0.45737035    -0.07000
Cl103      Cl  0.50169462  0.99160557  0.00134821    -0.50000
C104        C  0.58473144  0.91780558  0.42226997     0.42600
H105        H  0.53444183  0.05240628  0.11566277     0.06800
N106        N  0.55346643  0.04877176  0.41361720    -0.46700
C107        C  0.93082449  0.40903101  0.07673816     0.42400
N108        N  0.96544597  0.42815284  0.03733361     0.01300
C109        C  0.05896426  0.58366847  0.04137234    -0.06600
H110        H  0.93692642  0.60437413  0.02403917     0.06800
C111        C  0.94185601  0.53600053  0.40523968    -0.06900
Co112      Co  0.00143766  0.49383656  0.05968671     0.74200
N113        N  0.96310165  0.55534234  0.03171651    -0.26100
Co114      Co  0.00144692  0.55464247  0.99370090     0.74100
C115        C  0.92629324  0.56950293  0.41544012     0.42500
N116        N  0.96509438  0.44821808  0.43549575     0.00900
N117        N  0.96213550  0.55172917  0.45463635     0.01000
N118        N  0.05761465  0.54496022  0.08499129    -0.46900
H119        H  0.93887422  0.45859327  0.10919483     0.06800
N120        N  0.96276930  0.53245327  0.05706259     0.01300
N121        N  0.03788255  0.55391512  0.45448241     0.01100
C122        C  0.07427372  0.57028176  0.41549979     0.42700
N123        N  0.96555471  0.42513781  0.46075166    -0.25500
C124        C  0.06292123  0.44752475  0.08642943    -0.06500
N125        N  0.94582052  0.40125115  0.04625591    -0.46600
N126        N  0.05810335  0.58019077  0.44485287    -0.46900
C127        C  0.07868202  0.41422267  0.07650870     0.42400
N128        N  0.03832856  0.53428476  0.05867127     0.01300
N129        N  0.04124115  0.42699542  0.46171281    -0.25600
N130        N  0.96475221  0.45332067  0.06041311    -0.26100
N131        N  0.04073889  0.44952291  0.43605805     0.01000
H132        H  0.06928165  0.37891103  0.46983657     0.06800
H133        H  0.06502596  0.52091308  0.38373700     0.06900
N134        N  0.03822240  0.55693540  0.03312172    -0.26100
N135        N  0.96351923  0.52709467  0.43111068    -0.25700
N136        N  0.04101860  0.42996404  0.03821882     0.01300
C137        C  0.92510524  0.57137246  0.07194711     0.42700
C138        C  0.94358596  0.39915285  0.45260718    -0.07000
N139        N  0.03874118  0.52797836  0.43222475    -0.25700
H140        H  0.94033006  0.52256539  0.38092206     0.06900
N141        N  0.94110865  0.54160825  0.08208604    -0.46900
H142        H  0.94059209  0.37518586  0.46688734     0.06800
C143        C  0.07939916  0.41155280  0.42129368     0.42500
C144        C  0.94288916  0.44404766  0.08579684    -0.06500
Co145      Co  0.00357936  0.42741464  0.99893747     0.73800
N146        N  0.94454244  0.43884312  0.40970908    -0.46700
C147        C  0.07196186  0.57584058  0.07593573     0.42800
N148        N  0.06324370  0.40484648  0.04665617    -0.46600
Co149      Co  0.00200036  0.48811296  0.43348971     0.73900
C150        C  0.06129682  0.53577351  0.40702896    -0.07000
C151        C  0.93998432  0.58059353  0.03864197    -0.06500
N152        N  0.04005164  0.45512482  0.06130346    -0.26100
N153        N  0.94067673  0.57731583  0.44614755    -0.46800
H154        H  0.06135666  0.60734260  0.02654706     0.06800
C155        C  0.06509769  0.40229269  0.45487341    -0.07000
Cl156      Cl  0.00247425  0.49113760  0.99637670    -0.50000
C157        C  0.92982276  0.40825661  0.41861044     0.42600
H158        H  0.06558874  0.46186744  0.11014876     0.06800
N159        N  0.06244314  0.44067413  0.41095779    -0.46700
C160        C  0.26666001  0.25248318  0.21738239     0.45400
H161        H  0.26954703  0.24973902  0.18909621    -0.03600
C162        C  0.26110404  0.25799423  0.28341733     0.45500
H163        H  0.25811226  0.26058505  0.31162792    -0.03600
C164        C  0.28750149  0.28294936  0.23225527    -0.17300
C165        C  0.22887538  0.26043612  0.22888857    -0.17000
C166        C  0.27973648  0.22014995  0.23698701    -0.17400
C167        C  0.28527394  0.28566350  0.26733585    -0.17400
C168        C  0.22597414  0.26293738  0.26433058    -0.17000
C169        C  0.27695462  0.22284909  0.27223204    -0.17300
C170        C  0.73283818  0.25367003  0.21592840     0.45400
H171        H  0.72954444  0.25201682  0.18774107    -0.03600
C172        C  0.74161813  0.25591730  0.28196778     0.45500
H173        H  0.74531954  0.25735239  0.31023975    -0.03600
C174        C  0.70728407  0.27886382  0.23408319    -0.17300
C175        C  0.72625990  0.21835439  0.23408373    -0.17000
C176        C  0.76969407  0.26662246  0.22622039    -0.17400
C177        C  0.71217952  0.27986306  0.26912666    -0.17400
C178        C  0.73068243  0.21945469  0.26935605    -0.17000
C179        C  0.77435888  0.26720553  0.26145943    -0.17300
C180        C  0.25273870  0.74832129  0.21646633     0.45400
H181        H  0.25654305  0.75188545  0.18846897    -0.03600
C182        C  0.24462974  0.74232032  0.28217222     0.45500
H183        H  0.24088815  0.74009004  0.31031505    -0.03600
C184        C  0.27842569  0.72246714  0.23317978    -0.17300
C185        C  0.25969941  0.78252184  0.23608173    -0.17000
C186        C  0.21629637  0.73396667  0.22614723    -0.17400
C187        C  0.27435195  0.71929170  0.26821188    -0.17400
C188        C  0.25519979  0.77959436  0.27125841    -0.17000
C189        C  0.21209459  0.73110860  0.26138784    -0.17300
C190        C  0.75926081  0.74385998  0.21452247     0.45400
H191        H  0.76116357  0.74447081  0.18602833    -0.03600
C192        C  0.75569465  0.74325226  0.28056089     0.45500
H193        H  0.75198850  0.74198528  0.30846126    -0.03600
C194        C  0.73305878  0.71701531  0.22788684    -0.17300
C195        C  0.79388257  0.73281859  0.23196178    -0.17000
C196        C  0.74631033  0.77881252  0.22999572    -0.17400
C197        C  0.73101541  0.71692452  0.26315026    -0.17400
C198        C  0.79326471  0.73541741  0.26758864    -0.17000
C199        C  0.74449650  0.77833487  0.26541388    -0.17300
C200        C  0.17818575  0.67449820  0.15583578    -0.11400
C201        C  0.14277088  0.67500023  0.16405651     0.15100
C202        C  0.13087903  0.69851676  0.18931631     0.02000
C203        C  0.15504136  0.72004154  0.20636489    -0.15800
C204        C  0.19140437  0.71740061  0.20044834    -0.10600
C205        C  0.20255570  0.69501653  0.17330928     0.08800
C206        C  0.11988715  0.65067567  0.14465335     0.09800
S207        S  0.08565510  0.70145769  0.20189743    -0.24900
H208        H  0.14552100  0.73749784  0.22608969     0.20000
S209        S  0.24705646  0.69092680  0.15901207    -0.30600
H210        H  0.18683828  0.65746360  0.13537571     0.10400
C211        C  0.10110047  0.66171650  0.11548126     0.03600
C212        C  0.08545816  0.63689741  0.09389708    -0.12900
C213        C  0.08869951  0.60089699  0.10027466    -0.08600
C214        C  0.10736533  0.59006748  0.12989914     0.07000
C215        C  0.12227978  0.61494273  0.15179720    -0.13700
S216        S  0.09850421  0.70739512  0.10484915    -0.30600
H217        H  0.07083905  0.64580295  0.07178030     0.11300
S218        S  0.11531095  0.54501390  0.14006418    -0.27700
H219        H  0.13753227  0.60629550  0.17371153     0.08500
H220        H  0.24440506  0.65739200  0.14485288     0.26900
H221        H  0.08018076  0.70356944  0.07374023     0.21700
H222        H  0.12268505  0.53532349  0.10596644     0.27000
H223        H  0.07642437  0.66735126  0.19282347     0.15900
C224        C  0.14805279  0.69728170  0.32885912    -0.11400
C225        C  0.14424831  0.66232917  0.31902616     0.15100
C226        C  0.15844820  0.65171496  0.28715819     0.02000
C227        C  0.17943710  0.67472684  0.26832599    -0.15800
C228        C  0.18461103  0.70940592  0.27885074    -0.10600
C229        C  0.16730619  0.72093551  0.30888086     0.08800
C230        C  0.12636934  0.63769890  0.34307828     0.09800
S231        S  0.15096718  0.60921988  0.26906021    -0.24900
H232        H  0.19250627  0.66500799  0.24564185     0.20000
S233        S  0.16937121  0.76537486  0.32340906    -0.30600
H234        H  0.13637177  0.70612022  0.35268579     0.10400
C235        C  0.14425212  0.60958229  0.35887522     0.03600
C236        C  0.12663155  0.58815079  0.38246232    -0.12900
C237        C  0.09163073  0.59421415  0.39102632    -0.08600
C238        C  0.07339691  0.62162294  0.37472889     0.07000
C239        C  0.09103139  0.64329758  0.35127920    -0.13700
S240        S  0.18976916  0.60118649  0.34998235    -0.30600
H241        H  0.14021044  0.56665093  0.39459733     0.11300
S242        S  0.02727252  0.62797381  0.38251711    -0.27700
H243        H  0.07721987  0.66454426  0.33895420     0.08500
H244        H  0.17480786  0.78005597  0.29071843     0.26900
H245        H  0.19387265  0.57259847  0.37223157     0.21700
H246        H  0.02260635  0.65597436  0.35963958     0.27000
H247        H  0.11891384  0.60328659  0.28564465     0.15900
C248        C  0.14769535  0.35009465  0.38359106    -0.11400
C249        C  0.13215334  0.34108013  0.35211705     0.15100
C250        C  0.09859688  0.35446864  0.34428394     0.02000
C251        C  0.08259651  0.37813316  0.36678061    -0.15800
C252        C  0.09853822  0.38782795  0.39783952    -0.10600
C253        C  0.13132074  0.37318551  0.40645019     0.08800
C254        C  0.15273515  0.31981355  0.32722736     0.09800
S255        S  0.07459111  0.34207441  0.30630782    -0.24900
H256        H  0.05698543  0.38839957  0.36038886     0.20000
S257        S  0.15423700  0.38387204  0.44553389    -0.30600
H258        H  0.17334524  0.33989933  0.38991397     0.10400
C259        C  0.16569422  0.33433782  0.29644823     0.03600
C260        C  0.18720193  0.31431766  0.27495086    -0.12900
C261        C  0.19665037  0.28004387  0.28343887    -0.08600
C262        C  0.18262126  0.26515140  0.31369583     0.07000
C263        C  0.16112958  0.28516224  0.33529062    -0.13700
S264        S  0.15747244  0.37937077  0.28580235    -0.30600
H265        H  0.19815665  0.32614367  0.25227998     0.11300
S266        S  0.19168511  0.22089195  0.32643651    -0.27700
H267        H  0.15115896  0.27375244  0.35878773     0.08500
H268        H  0.14118345  0.41794793  0.44839773     0.26900
H269        H  0.17146277  0.37836608  0.25238690     0.21700
H270        H  0.19880564  0.20826538  0.29327786     0.27000
H271        H  0.09077542  0.30953745  0.30187876     0.15900
C272        C  0.14544819  0.29399870  0.18407454    -0.11400
C273        C  0.15976479  0.31790673  0.16051175     0.15100
C274        C  0.19638481  0.31923598  0.15694546     0.02000
C275        C  0.21755437  0.29937650  0.17856483    -0.15800
C276        C  0.20373340  0.27674851  0.20358123    -0.10600
C277        C  0.16698336  0.27253075  0.20457531     0.08800
C278        C  0.13675498  0.34207516  0.14056753     0.09800
S279        S  0.21812106  0.34588212  0.12527804    -0.24900
H280        H  0.24531935  0.30241680  0.17568005     0.20000
S281        S  0.14610681  0.23933142  0.22995469    -0.30600
H282        H  0.11733167  0.29188299  0.18637432     0.10400
C283        C  0.11228130  0.33001005  0.11622992     0.03600
C284        C  0.09387929  0.35409138  0.09572515    -0.12900
C285        C  0.09971374  0.39013122  0.09842444    -0.08600
C286        C  0.12471304  0.40199256  0.12248428     0.07000
C287        C  0.14197119  0.37808651  0.14384157    -0.13700
S288        S  0.10563194  0.28396393  0.10995874    -0.30600
H289        H  0.07486970  0.34472946  0.07734834     0.11300
S290        S  0.13812563  0.44677009  0.12542119    -0.27700
H291        H  0.16111380  0.38755773  0.16210059     0.08500
H292        H  0.17509808  0.21678570  0.23074578     0.26900
H293        H  0.07971236  0.28681100  0.08445371     0.21700
H294        H  0.13554680  0.45340448  0.08993176     0.27000
H295        H  0.19195881  0.34287749  0.10006232     0.15900
C296        C  0.81226888  0.31973231  0.15309981    -0.11400
C297        C  0.84774684  0.31310668  0.15817350     0.15100
C298        C  0.85760409  0.28933346  0.18422956     0.02000
C299        C  0.83176898  0.27361220  0.20484758    -0.15800
C300        C  0.79587878  0.28118152  0.20061654    -0.10600
C301        C  0.78643870  0.30413419  0.17332566     0.08800
C302        C  0.87294000  0.33394760  0.13726297     0.09800
S303        S  0.90256151  0.27811977  0.19262085    -0.24900
H304        H  0.83987497  0.25560013  0.22476007     0.20000
S305        S  0.74235826  0.31740018  0.16442671    -0.30600
H306        H  0.80479115  0.33861363  0.13373567     0.10400
C307        C  0.87239835  0.33314095  0.10094152     0.03600
C308        C  0.89163717  0.35776833  0.08208733    -0.12900
C309        C  0.91241906  0.38281372  0.09854293    -0.08600
C310        C  0.91545574  0.38130281  0.13488597     0.07000
C311        C  0.89489157  0.35786285  0.15372585    -0.13700
S312        S  0.84728959  0.30058459  0.07846803    -0.30600
H313        H  0.89002650  0.35785256  0.05429580     0.11300
S314        S  0.94672967  0.40639450  0.15885135    -0.27700
H315        H  0.89603852  0.35826268  0.18156142     0.08500
H316        H  0.74754872  0.32800238  0.13017560     0.26900
H317        H  0.86051590  0.30764224  0.04546568     0.21700
H318        H  0.97356397  0.40238186  0.13444016     0.27000
H319        H  0.91468750  0.28444375  0.15909539     0.15900
C320        C  0.90173808  0.35964258  0.33763918    -0.11400
C321        C  0.87012708  0.34455059  0.34826487     0.15100
C322        C  0.85955572  0.34905340  0.38293609     0.02000
C323        C  0.88008637  0.36888700  0.40549044    -0.15800
C324        C  0.91083073  0.38511521  0.39439554    -0.10600
C325        C  0.92219350  0.37951772  0.36020978     0.08800
C326        C  0.84926655  0.32371433  0.32302556     0.09800
S327        S  0.81973623  0.33107040  0.40004089    -0.24900
H328        H  0.87133571  0.37264967  0.43171626     0.20000
S329        S  0.96341342  0.39542413  0.34428741    -0.30600
H330        H  0.91081673  0.35549383  0.31158245     0.10400
C331        C  0.83487964  0.33881282  0.29298489     0.03600
C332        C  0.81273051  0.31904149  0.27175867    -0.12900
C333        C  0.80435808  0.28432077  0.27974140    -0.08600
C334        C  0.82087717  0.26862957  0.30838776     0.07000
C335        C  0.84290038  0.28835369  0.32962644    -0.13700
S336        S  0.84176039  0.38421407  0.28318098    -0.30600
H337        H  0.79964057  0.33158122  0.25041610     0.11300
S338        S  0.81470680  0.22351133  0.31931223    -0.27700
H339        H  0.85469114  0.27617540  0.35194687     0.08500
H340        H  0.98166757  0.39026560  0.37530949     0.26900
H341        H  0.82590467  0.38396858  0.25054003     0.21700
H342        H  0.80872733  0.21251138  0.28538486     0.27000
H343        H  0.80072390  0.33351447  0.36935668     0.15900
C344        C  0.83639226  0.69898055  0.34772279    -0.11400
C345        C  0.86338648  0.67940293  0.33298374     0.15100
C346        C  0.87451908  0.68807634  0.29952509     0.02000
C347        C  0.85473517  0.71161939  0.27987098    -0.15800
C348        C  0.82270080  0.72497225  0.29213673    -0.10600
C349        C  0.81803563  0.72372016  0.32835008     0.08800
C350        C  0.88012466  0.65133525  0.35354499     0.09800
S351        S  0.91281161  0.66913441  0.28010299    -0.24900
H352        H  0.86402043  0.71796328  0.25450975     0.20000
S353        S  0.79738348  0.75808308  0.35254346    -0.30600
H354        H  0.83060415  0.69601574  0.37483481     0.10400
C355        C  0.90026345  0.65893420  0.38281280     0.03600
C356        C  0.91438160  0.63165719  0.40237116    -0.12900
C357        C  0.90894287  0.59651732  0.39358898    -0.08600
C358        C  0.88824151  0.58905199  0.36429413     0.07000
C359        C  0.87458692  0.61646859  0.34441393    -0.13700
S360        S  0.90903246  0.70349586  0.39465309    -0.30600
H361        H  0.93027721  0.63796142  0.42448787     0.11300
S362        S  0.87646092  0.54557690  0.35180561    -0.27700
H363        H  0.85861953  0.61059853  0.32215534     0.08500
H364        H  0.79892131  0.78262797  0.32568141     0.26900
H365        H  0.92967460  0.69622180  0.42372421     0.21700
H366        H  0.87238969  0.53339120  0.38567134     0.27000
H367        H  0.93117219  0.66350556  0.31093059     0.15900
C368        C  0.84301659  0.65417796  0.19369420    -0.11400
C369        C  0.85896081  0.66923611  0.16505960     0.15100
C370        C  0.85482714  0.70535533  0.15952709     0.02000
C371        C  0.83396385  0.72507122  0.18203863    -0.15800
C372        C  0.81797262  0.71008297  0.21104444    -0.10600
C373        C  0.82318691  0.67367554  0.21683809     0.08800
C374        C  0.87762479  0.64565547  0.14075952     0.09800
S375        S  0.87582048  0.72788463  0.12456497    -0.24900
H376        H  0.83040920  0.75258037  0.17702900     0.20000
S377        S  0.80772955  0.64902192  0.25320791    -0.30600
H378        H  0.84586740  0.62643806  0.19794942     0.10400
C379        C  0.90568772  0.62435038  0.15169526     0.03600
C380        C  0.91982609  0.59955624  0.12911820    -0.12900
C381        C  0.90698666  0.59578910  0.09550880    -0.08600
C382        C  0.87907538  0.61730655  0.08453568     0.07000
C383        C  0.86480175  0.64189462  0.10715623    -0.13700
S384        S  0.92444317  0.62949428  0.19402248    -0.30600
H385        H  0.94163850  0.58362974  0.13738280     0.11300
S386        S  0.85948356  0.61377921  0.04253068    -0.27700
H387        H  0.84280148  0.65757056  0.09880643     0.08500
H388        H  0.78070428  0.67104067  0.26207506     0.26900
H389        H  0.95040143  0.60373252  0.19094299     0.21700
H390        H  0.86501606  0.57778390  0.03911138     0.27000
H391        H  0.90472722  0.70536188  0.12223297     0.15900
C392        C  0.66565389  0.09975867  0.37805683    -0.11400
C393        C  0.65089117  0.12366212  0.35496765     0.15100
C394        C  0.61405739  0.12496761  0.35184082     0.02000
C395        C  0.59300506  0.10527480  0.37413227    -0.15800
C396        C  0.60774265  0.08262591  0.39859167    -0.10600
C397        C  0.64465507  0.07849410  0.39887602     0.08800
C398        C  0.67428077  0.14772308  0.33541659     0.09800
S399        S  0.59251761  0.15089635  0.31947215    -0.24900
H400        H  0.56485378  0.10768139  0.37233076     0.20000
S401        S  0.66677178  0.04476558  0.42269970    -0.30600
H402        H  0.69382565  0.09736677  0.37960818     0.10400
C403        C  0.67365760  0.18382696  0.34138095     0.03600
C404        C  0.69366025  0.20604082  0.32065624    -0.12900
C405        C  0.71539308  0.19330955  0.29422389    -0.08600
C406        C  0.71905311  0.15670029  0.29111659     0.07000
C407        C  0.69794705  0.13448807  0.31107580    -0.13700
S408        S  0.64732651  0.20199381  0.37545789    -0.30600
H409        H  0.69080503  0.23369433  0.32426609     0.11300
S410        S  0.75115553  0.13635570  0.26383734    -0.27700
H411        H  0.69997853  0.10661699  0.30758639     0.08500
H412        H  0.64104689  0.01946115  0.41638222     0.26900
H413        H  0.66332422  0.23486512  0.37559462     0.21700
H414        H  0.77258537  0.16568633  0.26005023     0.27000
H415        H  0.61903468  0.14701601  0.29477206     0.15900
C416        C  0.65331275  0.12548249  0.11284434    -0.11400
C417        C  0.65495377  0.11724013  0.14804295     0.15100
C418        C  0.63378135  0.08994072  0.16061406     0.02000
C419        C  0.61007314  0.07337799  0.13859773    -0.15800
C420        C  0.60769192  0.08225011  0.10362668    -0.10600
C421        C  0.63026327  0.10819863  0.09056094     0.08800
C422        C  0.67480283  0.14056016  0.17173935     0.09800
S423        S  0.63608945  0.07476894  0.20447837    -0.24900
H424        H  0.59382050  0.05277502  0.14881105     0.20000
S425        S  0.62973152  0.12174943  0.04616965    -0.30600
H426        H  0.66905456  0.14661134  0.10288574     0.10400
C427        C  0.71093621  0.14701110  0.16820100     0.03600
C428        C  0.72710111  0.17207003  0.18922269    -0.12900
C429        C  0.70835774  0.18975871  0.21487625    -0.08600
C430        C  0.67240134  0.18228995  0.21916038     0.07000
C431        C  0.65617061  0.15816053  0.19742372    -0.13700
S432        S  0.73671706  0.12278259  0.13763668    -0.30600
H433        H  0.75452651  0.17793484  0.18579878     0.11300
S434        S  0.64568569  0.20613427  0.24922763    -0.27700
H435        H  0.62835157  0.15366207  0.19965579     0.08500
H436        H  0.59350801  0.11782688  0.04161463     0.26900
H437        H  0.76950457  0.13499768  0.14858299     0.21700
H438        H  0.61373289  0.18977085  0.24191728     0.27000
H439        H  0.67117716  0.08412107  0.20986964     0.15900
C440        C  0.37070652  0.09370689  0.16041671    -0.11400
C441        C  0.35428182  0.12414057  0.14860016     0.15100
C442        C  0.35972096  0.13481371  0.11419482     0.02000
C443        C  0.38091622  0.11473269  0.09249628    -0.15800
C444        C  0.39800839  0.08475380  0.10450820    -0.10600
C445        C  0.39203992  0.07372655  0.13875525     0.08800
C446        C  0.33375834  0.14540451  0.17336180     0.09800
S447        S  0.34149032  0.17439303  0.09669294    -0.24900
H448        H  0.38509629  0.12328461  0.06624922     0.20000
S449        S  0.40935713  0.03364804  0.15592515    -0.30600
H450        H  0.36660477  0.08530086  0.18671587     0.10400
C451        C  0.29724709  0.14981528  0.17070627     0.03600
C452        C  0.28009842  0.17337027  0.19268405    -0.12900
C453        C  0.29854593  0.19205169  0.21781830    -0.08600
C454        C  0.33494989  0.18635747  0.22123223     0.07000
C455        C  0.35194520  0.16295317  0.19923474    -0.13700
S456        S  0.27259544  0.12554737  0.13933496    -0.30600
H457        H  0.25227429  0.17779280  0.18994782     0.11300
S458        S  0.36076361  0.21013129  0.25186488    -0.27700
H459        H  0.37991159  0.15916673  0.20124879     0.08500
H460        H  0.40398364  0.01438969  0.12565807     0.26900
H461        H  0.23935609  0.13728870  0.14956232     0.21700
H462        H  0.39374733  0.19765983  0.24173786     0.27000
H463        H  0.34236672  0.19359145  0.12738449     0.15900
C464        C  0.34234287  0.11777853  0.39286091    -0.11400
C465        C  0.34842300  0.12051009  0.35740099     0.15100
C466        C  0.37882995  0.10506074  0.34352589     0.02000
C467        C  0.40166052  0.08656352  0.36512745    -0.15800
C468        C  0.39614299  0.08453069  0.40087826    -0.10600
C469        C  0.36606346  0.10091001  0.41472442     0.08800
C470        C  0.32634228  0.14508305  0.33731638     0.09800
S471        S  0.39103396  0.10932683  0.29889029    -0.24900
H472        H  0.42437473  0.07437854  0.35376270     0.20000
S473        S  0.35746375  0.10370810  0.46017591    -0.30600
H474        H  0.31980863  0.13074035  0.40390354     0.10400
C475        C  0.30430092  0.13502682  0.31008763     0.03600
C476        C  0.28677899  0.16074373  0.29071344    -0.12900
C477        C  0.29161228  0.19649673  0.29726161    -0.08600
C478        C  0.31275288  0.20597092  0.32589169     0.07000
C479        C  0.32933319  0.18021771  0.34537640    -0.13700
S480        S  0.29868152  0.08964914  0.29990970    -0.30600
H481        H  0.26987179  0.15298827  0.26981319     0.11300
S482        S  0.32284835  0.25025980  0.33681013    -0.27700
H483        H  0.34648629  0.18748861  0.36631861     0.08500
H484        H  0.39218148  0.11190623  0.46886924     0.26900
H485        H  0.27943304  0.09479554  0.26948747     0.21700
H486        H  0.34100018  0.24401237  0.36763350     0.27000
H487        H  0.37758128  0.14299822  0.29406375     0.15900
C488        C  0.64781958  0.84794444  0.10776258    -0.11400
C489        C  0.65220184  0.85796134  0.14219341     0.15100
C490        C  0.63197258  0.88585753  0.15513518     0.02000
C491        C  0.60675306  0.90166671  0.13416874    -0.15800
C492        C  0.60211173  0.89151172  0.09983797    -0.10600
C493        C  0.62310285  0.86439515  0.08650414     0.08800
C494        C  0.67640762  0.83771646  0.16459921     0.09800
S495        S  0.63758145  0.90310532  0.19792009    -0.24900
H496        H  0.59155047  0.92306845  0.14442941     0.20000
S497        S  0.61885541  0.84891316  0.04297726    -0.30600
H498        H  0.66317625  0.82657573  0.09762234     0.10400
C499        C  0.66371165  0.81830957  0.19265624     0.03600
C500        C  0.68731414  0.80132550  0.21449392    -0.12900
C501        C  0.72351336  0.80185803  0.20848190    -0.08600
C502        C  0.73612055  0.82013626  0.17949636     0.07000
C503        C  0.71251971  0.83800710  0.15803447    -0.13700
S504        S  0.61728541  0.81317217  0.19946084    -0.30600
H505        H  0.67733939  0.78614208  0.23558847     0.11300
S506        S  0.78183985  0.82162424  0.16842465    -0.27700
H507        H  0.72238306  0.85246420  0.13619389     0.08500
H508        H  0.58279326  0.85544902  0.04014950     0.26900
H509        H  0.61953144  0.79469045  0.23060208     0.21700
H510        H  0.79493574  0.81497479  0.20154641     0.27000
H511        H  0.67302530  0.89406506  0.20139778     0.15900
C512        C  0.61901081  0.86465735  0.34624426    -0.11400
C513        C  0.65531310  0.86550516  0.35171371     0.15100
C514        C  0.66822627  0.88395707  0.38039740     0.02000
C515        C  0.64483733  0.90097962  0.40258489    -0.15800
C516        C  0.60835817  0.89902532  0.39789364    -0.10600
C517        C  0.59556374  0.88000902  0.36944195     0.08800
C518        C  0.67835499  0.84394908  0.32914681     0.09800
S519        S  0.71411347  0.88588194  0.39082160    -0.24900
H520        H  0.65544287  0.91548176  0.42396361     0.20000
S521        S  0.54972700  0.87204167  0.36253773    -0.30600
H522        H  0.60874595  0.85015937  0.32462275     0.10400
C523        C  0.67470841  0.80753368  0.32861512     0.03600
C524        C  0.69630745  0.78753345  0.30750506    -0.12900
C525        C  0.72235811  0.80246528  0.28680552    -0.08600
C526        C  0.72658380  0.83895738  0.28761679     0.07000
C527        C  0.70427673  0.85939038  0.30845260    -0.13700
S528        S  0.64380342  0.78574787  0.35629438    -0.30600
H529        H  0.69280762  0.75977847  0.30751660     0.11300
S530        S  0.76129909  0.85934150  0.26367269    -0.23900
H531        H  0.70720576  0.88737035  0.30897573     0.08500
H532        H  0.54226749  0.86630364  0.39751125     0.26900
H533        H  0.64406361  0.75387440  0.33863682     0.21700
H534        H  0.75733482  0.89269232  0.27796052     0.27000
H535        H  0.72219540  0.85193870  0.37999919     0.15900
C536        C  0.33842220  0.86635242  0.39601440    -0.11400
C537        C  0.34106343  0.86639115  0.36001805     0.15100
C538        C  0.36978176  0.88362288  0.34470269     0.02000
C539        C  0.39510662  0.89963699  0.36555803    -0.15800
C540        C  0.39317082  0.89846373  0.40167333    -0.10600
C541        C  0.36431618  0.88118499  0.41683673     0.08800
C542        C  0.31563663  0.84511082  0.33979363     0.09800
S543        S  0.37604173  0.88605334  0.29880185    -0.24900
H544        H  0.41654030  0.91311303  0.35328640     0.20000
S545        S  0.35968382  0.87521799  0.46256564    -0.30600
H546        H  0.31672405  0.85303746  0.40809127     0.10400
C547        C  0.31480893  0.80871039  0.34373192     0.03600
C548        C  0.29281726  0.78875530  0.32296139    -0.12900
C549        C  0.27145795  0.80377371  0.29737964    -0.08600
C550        C  0.26970669  0.84059704  0.29578617     0.07000
C551        C  0.29217668  0.86077867  0.31649258    -0.13700
S552        S  0.34408201  0.78662729  0.37298468    -0.30600
H553        H  0.29476837  0.76088810  0.32517541     0.11300
S554        S  0.23858344  0.86339506  0.26918829    -0.27700
H555        H  0.29145979  0.88885967  0.31436275     0.08500
H556        H  0.39532934  0.86816314  0.46823102     0.26900
H557        H  0.32377470  0.75632545  0.37585085     0.21700
H558        H  0.21500355  0.83559790  0.26608784     0.27000
H559        H  0.36023827  0.85425278  0.29087586     0.15900
C560        C  0.34683258  0.85840678  0.11396821    -0.11400
C561        C  0.34274543  0.87171707  0.14737137     0.15100
C562        C  0.36359729  0.90024330  0.15751873     0.02000
C563        C  0.38811702  0.91428902  0.13458245    -0.15800
C564        C  0.39205890  0.90117602  0.10112493    -0.10600
C565        C  0.37108982  0.87285992  0.09077270     0.08800
C566        C  0.32000689  0.85262896  0.17228289     0.09800
S567        S  0.36003907  0.92006570  0.19936785    -0.24900
H568        H  0.40374397  0.93625285  0.14273071     0.20000
S569        S  0.37674818  0.85353323  0.04887327    -0.30600
H570        H  0.33160768  0.83597127  0.10646183     0.10400
C571        C  0.28355002  0.84932197  0.16788059     0.03600
C572        C  0.26426582  0.82801141  0.19045914    -0.12900
C573        C  0.28039697  0.81022332  0.21785524    -0.08600
C574        C  0.31691070  0.81466401  0.22273784     0.07000
C575        C  0.33597349  0.83575833  0.20006927    -0.13700
S576        S  0.26159814  0.87219371  0.13351586    -0.30600
H577        H  0.23654698  0.82432170  0.18622913     0.11300
S578        S  0.34092118  0.79050484  0.25471328    -0.27700
H579        H  0.36401600  0.83802631  0.20300472     0.08500
H580        H  0.35225806  0.82664129  0.05297539     0.26900
H581        H  0.22745788  0.86208099  0.14232476     0.21700
H582        H  0.37418525  0.80445484  0.24821697     0.27000
H583        H  0.32470426  0.91174555  0.20471513     0.15900
C584        C  0.38748953  0.61246120  0.33624280    -0.11400
C585        C  0.37243896  0.64209462  0.35111763     0.15100
C586        C  0.37864641  0.64992792  0.38588285     0.02000
C587        C  0.39886947  0.62738771  0.40547576    -0.15800
C588        C  0.41355178  0.59754910  0.39082230    -0.10600
C589        C  0.40844022  0.59013426  0.35571978     0.08800
C590        C  0.34805530  0.66286676  0.33063368     0.09800
S591        S  0.36131622  0.68812236  0.40652897    -0.24900
H592        H  0.40314591  0.63308792  0.43243413     0.20000
S593        S  0.42768927  0.55328299  0.33402456    -0.30600
H594        H  0.38255163  0.60659551  0.30943685     0.10400
C595        C  0.35974716  0.68474453  0.30427430     0.03600
C596        C  0.33526472  0.70352561  0.28523938    -0.12900
C597        C  0.29914124  0.70001273  0.29105239    -0.08600
C598        C  0.28780613  0.67842360  0.31833904     0.07000
C599        C  0.31245518  0.66012768  0.33775197    -0.13700
S600        S  0.40580203  0.68907979  0.29517096    -0.30600
H601        H  0.34456419  0.72066274  0.26541587     0.11300
S602        S  0.24241443  0.67160820  0.32781461    -0.27700
H603        H  0.30408651  0.64287232  0.35816706     0.08500
H604        H  0.45011514  0.54188346  0.36029907     0.26900
H605        H  0.40216102  0.70954915  0.26536712     0.21700
H606        H  0.24704026  0.65467037  0.35956671     0.27000
H607        H  0.36526357  0.70944049  0.37744688     0.15900
C608        C  0.36851075  0.65810016  0.11217202    -0.11400
C609        C  0.38180569  0.66045882  0.14563667     0.15100
C610        C  0.41418455  0.64492295  0.15378458     0.02000
C611        C  0.43163101  0.62555182  0.12865572    -0.15800
C612        C  0.41743150  0.62196087  0.09564431    -0.10600
C613        C  0.38620125  0.63938291  0.08697674     0.08800
C614        C  0.35935444  0.67678131  0.17163555     0.09800
S615        S  0.43377365  0.64799033  0.19582810    -0.24900
H616        H  0.45577162  0.61228114  0.13518011     0.20000
S617        S  0.36726616  0.63808136  0.04452015    -0.30600
H618        H  0.34375631  0.67033163  0.10589098     0.10400
C619        C  0.35376263  0.71286330  0.17154885     0.03600
C620        C  0.32714403  0.72672825  0.19181875    -0.12900
C621        C  0.30634630  0.70543389  0.21272813    -0.08600
C622        C  0.31220325  0.66905803  0.21285842     0.07000
C623        C  0.33906702  0.65525995  0.19272149    -0.13700
S624        S  0.38017651  0.74117641  0.14516279    -0.30600
H625        H  0.32215390  0.75424917  0.19083708     0.11300
S626        S  0.28437597  0.63849437  0.23491618    -0.27700
H627        H  0.34278459  0.62733467  0.19179133     0.08500
H628        H  0.39919160  0.63543458  0.02684050     0.26900
H629        H  0.36348088  0.77253478  0.15407970     0.21700
H630        H  0.25392160  0.65881697  0.23315691     0.27000
H631        H  0.41849601  0.68003338  0.20465820     0.15900
C632        C  0.65195279  0.67179263  0.30216889    -0.11400
C633        C  0.66830066  0.65206324  0.32784905     0.15100
C634        C  0.70464557  0.65423441  0.33257617     0.02000
C635        C  0.72406427  0.67549704  0.31088890    -0.15800
C636        C  0.70802655  0.69480723  0.28453496    -0.10600
C637        C  0.67129045  0.69373777  0.28079950     0.08800
C638        C  0.64625527  0.63096124  0.35043543     0.09800
S639        S  0.72768618  0.63091880  0.36590707    -0.24900
H640        H  0.75204870  0.67703568  0.31474698     0.20000
S641        S  0.64829137  0.72200675  0.25140624    -0.30600
H642        H  0.62379991  0.67053415  0.29961587     0.10400
C643        C  0.62549832  0.64695645  0.37563442     0.03600
C644        C  0.60337785  0.62656577  0.39555874    -0.12900
C645        C  0.60179422  0.59040177  0.39107449    -0.08600
C646        C  0.62327209  0.57427219  0.36626604     0.07000
C647        C  0.64541279  0.59480000  0.34617203    -0.13700
S648        S  0.62795557  0.69322211  0.38318196    -0.30600
H649        H  0.58773918  0.63890629  0.41523501     0.11300
S650        S  0.62293714  0.52812182  0.35839231    -0.27700
H651        H  0.66161381  0.58268723  0.32671753     0.08500
H652        H  0.61427547  0.71052557  0.25885758     0.26900
H653        H  0.60525695  0.69432127  0.41157446     0.21700
H654        H  0.58723160  0.52365391  0.36553747     0.27000
H655        H  0.70064267  0.63203960  0.39029547     0.15900
C656        C  0.60923750  0.64622675  0.13641359    -0.11400
C657        C  0.64525580  0.64618596  0.13046424     0.15100
C658        C  0.65973412  0.62445101  0.10506245     0.02000
C659        C  0.63777811  0.60295745  0.08610811    -0.15800
C660        C  0.60163524  0.60315164  0.09176072    -0.10600
C661        C  0.58724879  0.62458903  0.11763561     0.08800
C662        C  0.66751215  0.66463528  0.15484558     0.09800
S663        S  0.70593164  0.62280846  0.09600989    -0.24900
H664        H  0.64889751  0.58672121  0.06613688     0.20000
S665        S  0.54169204  0.62397849  0.12957141    -0.30600
H666        H  0.59845851  0.66210282  0.15684110     0.10400
C667        C  0.67325302  0.70050360  0.15249934     0.03600
C668        C  0.69506577  0.71629538  0.17657331    -0.12900
C669        C  0.71071175  0.69715435  0.20343837    -0.08600
C670        C  0.70462048  0.66079614  0.20536137     0.07000
C671        C  0.68296574  0.64520854  0.18104351    -0.13700
S672        S  0.65338994  0.72590882  0.11857575    -0.30600
H673        H  0.69960350  0.74388717  0.17451815     0.11300
S674        S  0.72506997  0.63276396  0.23656551    -0.27700
H675        H  0.67815026  0.61749185  0.18200205     0.08500
H676        H  0.53653782  0.58858637  0.12208512     0.26900
H677        H  0.66560030  0.75854608  0.12955365     0.21700
H678        H  0.70772009  0.60173538  0.22815989     0.27000
H679        H  0.71295694  0.65746997  0.10503956     0.15900
C680        C  0.60440456  0.38580119  0.34513522    -0.11400
C681        C  0.61819165  0.35465145  0.35815362     0.15100
C682        C  0.61276956  0.34560323  0.39283795     0.02000
C683        C  0.59446241  0.36835600  0.41409730    -0.15800
C684        C  0.58154741  0.39994121  0.40136694    -0.10600
C685        C  0.58587732  0.40850837  0.36639183     0.08800
C686        C  0.64159282  0.33429169  0.33610439     0.09800
S687        S  0.63005601  0.30633181  0.41169844    -0.24900
H688        H  0.59118415  0.36187766  0.44103636     0.20000
S689        S  0.56870973  0.44785678  0.34748754    -0.30600
H690        H  0.60878807  0.39274619  0.31846912     0.10400
C691        C  0.62875430  0.31037006  0.31204119     0.03600
C692        C  0.65236438  0.29259838  0.29095429    -0.12900
C693        C  0.68850424  0.29867549  0.29317481    -0.08600
C694        C  0.70100987  0.32315442  0.31715901     0.07000
C695        C  0.67743849  0.34038243  0.33863385    -0.13700
S696        S  0.58243011  0.30252956  0.30833215    -0.30600
H697        H  0.64263008  0.27442811  0.27222661     0.11300
S698        S  0.74625513  0.33518534  0.31872327    -0.27700
H699        H  0.68671054  0.35938478  0.35698618     0.08500
H700        H  0.54080908  0.45219943  0.37056794     0.26900
H701        H  0.58452385  0.27797348  0.28165151     0.21700
H702        H  0.74339875  0.36129132  0.34383824     0.27000
H703        H  0.62648791  0.28611111  0.38189486     0.15900
C704        C  0.64010894  0.31710968  0.17106552    -0.11400
C705        C  0.64016588  0.35190530  0.18123840     0.15100
C706        C  0.66083834  0.36238102  0.20918813     0.02000
C707        C  0.68208825  0.33798166  0.22557566    -0.15800
C708        C  0.68239568  0.30270494  0.21571625    -0.10600
C709        C  0.66115366  0.29238060  0.18760108     0.08800
C710        C  0.62214197  0.37716340  0.15906607     0.09800
S711        S  0.66254862  0.40675804  0.22402881    -0.24900
H712        H  0.69944269  0.34701963  0.24562257     0.20000
S713        S  0.66096957  0.24872402  0.17098312    -0.30600
H714        H  0.62436475  0.30971788  0.14913219     0.10400
C715        C  0.64074175  0.39563911  0.13381533     0.03600
C716        C  0.62254484  0.41725634  0.11113914    -0.12900
C717        C  0.58609441  0.42061830  0.11311231    -0.08600
C718        C  0.56770826  0.40323617  0.13951282     0.07000
C719        C  0.58589213  0.38119280  0.16188599    -0.13700
S720        S  0.68741023  0.39015703  0.12916899    -0.30600
H721        H  0.63666452  0.43024319  0.09077177     0.11300
S722        S  0.52140508  0.40848087  0.14635074    -0.27700
H723        H  0.57179650  0.36711998  0.18162476     0.08500
H724        H  0.64078499  0.25494495  0.14137604     0.26900
H725        H  0.69216912  0.41554128  0.10353600     0.21700
H726        H  0.52008959  0.44338366  0.13549688     0.27000
H727        H  0.62881135  0.41625029  0.21316733     0.15900
C728        C  0.35370862  0.34320003  0.31025375    -0.11400
C729        C  0.33357638  0.35908994  0.33568709     0.15100
C730        C  0.29730763  0.35313276  0.33694227     0.02000
C731        C  0.28223936  0.33020510  0.31337611    -0.15800
C732        C  0.30256596  0.31297591  0.28854435    -0.10600
C733        C  0.33897196  0.31971823  0.28711483     0.08800
C734        C  0.35257941  0.37833063  0.36243591     0.09800
S735        S  0.26927783  0.37215771  0.36907314    -0.24900
H736        H  0.25444000  0.32520898  0.31489612     0.20000
S737        S  0.36822099  0.29557195  0.25977441    -0.30600
H738        H  0.38162141  0.34776690  0.31004342     0.10400
C739        C  0.36906331  0.36045266  0.38963559     0.03600
C740        C  0.39168131  0.37844947  0.41150105    -0.12900
C741        C  0.39788042  0.41402632  0.40684143    -0.08600
C742        C  0.38094562  0.43196148  0.37973810     0.07000
C743        C  0.35857233  0.41388197  0.35777514    -0.13700
S744        S  0.36156872  0.31460466  0.39622930    -0.30600
H745        H  0.40419765  0.36489127  0.43261273     0.11300
S746        S  0.38796804  0.47735400  0.37070988    -0.27700
H747        H  0.34653188  0.42733212  0.33628805     0.08500
H748        H  0.39979202  0.31058379  0.27066501     0.26900
H749        H  0.38462611  0.31033000  0.42409885     0.21700
H750        H  0.42360957  0.47718281  0.37957011     0.27000
H751        H  0.28953402  0.40190868  0.37508915     0.15900
C752        C  0.38349546  0.40271865  0.16438708    -0.11400
C753        C  0.35957109  0.38131642  0.14719582     0.15100
C754        C  0.35419124  0.38521416  0.11153803     0.02000
C755        C  0.37398090  0.40953019  0.09358247    -0.15800
C756        C  0.39866313  0.43009275  0.11057467    -0.10600
C757        C  0.40339056  0.42702867  0.14623715     0.08800
C758        C  0.34051146  0.35545429  0.16745738     0.09800
S759        S  0.32360523  0.35934054  0.08725397    -0.24900
H760        H  0.37095992  0.41168151  0.06594802     0.20000
S761        S  0.43518728  0.45347668  0.16829841    -0.30600
H762        H  0.38704280  0.39970245  0.19185362     0.10400
C763        C  0.34866999  0.31978515  0.16586042     0.03600
C764        C  0.33002210  0.29648844  0.18645447    -0.12900
C765        C  0.30459351  0.30856190  0.20949673    -0.08600
C766        C  0.29549176  0.34421214  0.20981208     0.07000
C767        C  0.31387553  0.36730048  0.18897205    -0.13700
S768        S  0.38365264  0.30420861  0.13877803    -0.30600
H769        H  0.33626734  0.26901838  0.18587774     0.11300
S770        S  0.25900886  0.36042069  0.23442664    -0.27700
H771        H  0.30740849  0.39472474  0.18906060     0.08500
H772        H  0.42871507  0.44041971  0.20148408     0.26900
H773        H  0.38034040  0.26877190  0.14718936     0.21700
H774        H  0.26353394  0.39592157  0.22701242     0.27000
H775        H  0.30068267  0.35188231  0.11442075     0.15900
C776        C  0.42477968  0.44808718  0.58881281     0.42400
N777        N  0.43895774  0.47648085  0.54378439     0.01300
C778        C  0.57682374  0.45205693  0.93758015    -0.06600
H779        H  0.60997394  0.48564698  0.57136322     0.06800
C780        C  0.54991949  0.59748803  0.55409721    -0.06900
Co781      Co  0.50017240  0.44516746  0.50826905     0.74200
N782        N  0.56498175  0.47245868  0.54075152    -0.26100
Co783      Co  0.56177606  0.50453377  0.99651947     0.74100
C784        C  0.58126336  0.58507696  0.57137216     0.42500
N785        N  0.46616176  0.57582010  0.53255956     0.00900
N786        N  0.56723292  0.54860274  0.53250980     0.01000
N787        N  0.53322285  0.41317974  0.94593746    -0.46900
H788        H  0.46990927  0.40920320  0.58158833     0.06800
N789        N  0.54001204  0.44921276  0.54440672     0.01300
N790        N  0.56119999  0.53872717  0.95499777     0.01100
C791        C  0.57441132  0.56836750  0.91017514     0.42700
N792        N  0.44128542  0.55235966  0.53524481    -0.25500
C793        C  0.44543286  0.42122773  0.94662510    -0.06500
N794        N  0.41508984  0.47457821  0.56820323    -0.46600
N795        N  0.58409049  0.54074254  0.92953319    -0.46900
C796        C  0.41465305  0.43589595  0.92955482     0.42400
N797        N  0.53125487  0.43939117  0.96782286     0.01300
N798        N  0.43628018  0.54569836  0.96043198    -0.25600
N799        N  0.46280871  0.45181524  0.54621565    -0.26100
N800        N  0.46235497  0.56765578  0.95702878     0.01000
H801        H  0.39048508  0.53598306  0.92960470     0.06800
H802        H  0.53068294  0.60797001  0.92039478     0.06900
N803        N  0.55663771  0.46219231  0.96379104    -0.26100
N804        N  0.54312889  0.57308585  0.53068377    -0.25700
N805        N  0.43103817  0.47035920  0.96927379     0.01300
C806        C  0.57256449  0.44221202  0.58870985     0.42700
C807        C  0.41949712  0.56163449  0.56036370    -0.07000
N808        N  0.53807247  0.56411503  0.95413454    -0.25700
H809        H  0.53528814  0.62128320  0.55772917     0.06900
N810        N  0.54378658  0.43022679  0.57256812    -0.46900
H811        H  0.39607416  0.54791566  0.56788602     0.06800
C812        C  0.43127098  0.57629383  0.91252358     0.42500
C813        C  0.45607567  0.43256456  0.57403444    -0.06500
Co814      Co  0.43843480  0.51030933  0.50245030     0.73800
N815        N  0.46240250  0.60174000  0.55464155    -0.46700
C816        C  0.56090240  0.41989516  0.92567852     0.42800
N817        N  0.40698698  0.46603995  0.94529099    -0.46600
Co818      Co  0.50149226  0.57091632  0.99262806     0.73900
C819        C  0.54431837  0.58415963  0.92679470    -0.07000
C820        C  0.58696208  0.46990865  0.56739548    -0.06500
N821        N  0.45388166  0.44466814  0.97068049    -0.26100
N822        N  0.59104331  0.55504164  0.55627381    -0.46800
H823        H  0.60021190  0.46498032  0.92874885     0.06800
C824        C  0.41477918  0.54964827  0.93360314    -0.07000
Cl825      Cl  0.50211978  0.50821298  0.50118935    -0.50000
C826        C  0.43355010  0.59424027  0.57304720     0.42600
H827        H  0.45915963  0.39715433  0.94162401     0.06800
N828        N  0.46005672  0.58686756  0.92910569    -0.46700
C829        C  0.58262229  0.91332955  0.57815427     0.42400
N830        N  0.56540046  0.95210659  0.54178767     0.01300
C831        C  0.41193571  0.05006695  0.54763926    -0.06600
H832        H  0.38748200  0.92737713  0.53120738     0.06800
C833        C  0.45372713  0.93480997  0.91069512    -0.06900
Co834      Co  0.50021249  0.98887746  0.56481769     0.74200
N835        N  0.43736224  0.95228632  0.53782901    -0.26100
Co836      Co  0.43825150  0.99037970  0.49960197     0.74100
C837        C  0.41907373  0.92188614  0.92078696     0.42500
N838        N  0.54319645  0.95345228  0.93939198     0.00900
N839        N  0.43845473  0.95706489  0.95941330     0.01000
N840        N  0.45225349  0.04743753  0.59001587    -0.46900
H841        H  0.53468072  0.92283142  0.61265626     0.06800
N842        N  0.46072035  0.95149473  0.56282484     0.01300
N843        N  0.44127183  0.03209135  0.96070940     0.01100
C844        C  0.42557855  0.07065682  0.92346728     0.42700
N845        N  0.56586422  0.95274606  0.96494890    -0.25500
C846        C  0.54688479  0.04892506  0.59142931    -0.06500
N847        N  0.59148929  0.93054100  0.54916102    -0.46600
N848        N  0.41623732  0.05459125  0.95294873    -0.46900
C849        C  0.57996530  0.06471990  0.58127286     0.42400
N850        N  0.46073463  0.02675314  0.56406508     0.01300
N851        N  0.56801328  0.02781928  0.96582582    -0.25600
N852        N  0.54023339  0.95124931  0.56501368    -0.26100
N853        N  0.54542903  0.02869996  0.94016721     0.01000
H854        H  0.61737191  0.05277848  0.97447551     0.06800
H855        H  0.47373053  0.05875401  0.88968688     0.06900
N856        N  0.43730477  0.02742181  0.53910282    -0.26100
N857        N  0.46347723  0.95648319  0.93605764    -0.25700
N858        N  0.56416654  0.02779762  0.54279416     0.01300
C859        C  0.42112808  0.91525244  0.57872066     0.42700
C860        C  0.59088389  0.92946851  0.95778260    -0.07000
N861        N  0.46639360  0.03143529  0.93746740    -0.25700
H862        H  0.46774032  0.93106496  0.88686518     0.06900
N863        N  0.45142624  0.93048326  0.58826650    -0.46900
H864        H  0.61403190  0.92549910  0.97319750     0.06800
C865        C  0.58668917  0.06336088  0.92439783     0.42500
C866        C  0.54880015  0.92746023  0.58903535    -0.06500
Co867      Co  0.56614681  0.99057480  0.50356383     0.73800
N868        N  0.55237518  0.93233150  0.91397559    -0.46700
C869        C  0.42174046  0.06311222  0.58163719     0.42800
N870        N  0.58931732  0.04993417  0.55110562    -0.46600
Co871      Co  0.50467200  0.99244758  0.93784854     0.73900
C872        C  0.45901148  0.05511653  0.91309984    -0.07000
C873        C  0.41166604  0.92993951  0.54535926    -0.06500
N874        N  0.53926212  0.02648949  0.56622608    -0.26100
N875        N  0.41150611  0.93736738  0.95098008    -0.46800
H876        H  0.38784955  0.05399353  0.53358713     0.06800
C877        C  0.59430080  0.04966832  0.95878850    -0.07000
Cl878      Cl  0.50219151  0.99004093  0.50143998    -0.50000
C879        C  0.58210094  0.91571548  0.92373199     0.42600
H880        H  0.53242842  0.05182661  0.61513687     0.06800
N881        N  0.55576910  0.04935241  0.91479562    -0.46700
C882        C  0.93130225  0.40966320  0.57897336     0.42400
N883        N  0.96534881  0.42871609  0.53896403     0.01300
C884        C  0.05645584  0.58601799  0.54131636    -0.06600
H885        H  0.93453847  0.60485405  0.52427282     0.06800
C886        C  0.94332385  0.53732896  0.90566654    -0.06900
Co887      Co  0.00074260  0.49515673  0.56004518     0.74200
N888        N  0.96129732  0.55600086  0.53169575    -0.26100
Co889      Co  0.99951823  0.55521152  0.49329043     0.74100
C890        C  0.92870347  0.57101615  0.91624564     0.42500
N891        N  0.96608270  0.44918761  0.93436020     0.00900
N892        N  0.96424119  0.55235563  0.95501831     0.01000
N893        N  0.05641967  0.54690974  0.58461899    -0.46900
H894        H  0.93918707  0.45974971  0.61074211     0.06800
N895        N  0.96159136  0.53332624  0.55726470     0.01300
N896        N  0.03977358  0.55381700  0.95525900     0.01100
C897        C  0.07581426  0.57147684  0.91661437     0.42700
N898        N  0.96624004  0.42565860  0.95920066    -0.25500
C899        C  0.06280788  0.44971452  0.58698286    -0.06500
N900        N  0.94607958  0.40172727  0.54840526    -0.46600
N901        N  0.05988864  0.58038416  0.94633370    -0.46900
C902        C  0.07871996  0.41638695  0.57734011     0.42400
N903        N  0.03711096  0.53603092  0.55838886     0.01300
N904        N  0.04185615  0.42696901  0.96081732    -0.25600
N905        N  0.96459033  0.45416117  0.56174395    -0.26100
N906        N  0.04172916  0.44987823  0.93548044     0.01000
H907        H  0.06960102  0.37869922  0.96862043     0.06800
H908        H  0.06638227  0.52303529  0.88342788     0.06900
N909        N  0.03637685  0.55875137  0.53286532    -0.26100
N910        N  0.96512732  0.52793930  0.93124380    -0.25700
N911        N  0.04088321  0.43154453  0.53900958     0.01300
C912        C  0.92396224  0.57211746  0.57264219     0.42700
C913        C  0.94395804  0.40011173  0.95056828    -0.07000
N914        N  0.04044967  0.52850270  0.93233645    -0.25700
H915        H  0.94109328  0.52426152  0.88118344     0.06900
N916        N  0.94040445  0.54257404  0.58263343    -0.46900
H917        H  0.94054536  0.37598864  0.96450017     0.06800
C918        C  0.08036614  0.41203490  0.92070859     0.42500
C919        C  0.94315018  0.44490760  0.58751418    -0.06500
Co920      Co  0.00318019  0.42788553  0.50017425     0.73800
N921        N  0.94531761  0.44062991  0.90846226    -0.46700
C922        C  0.07001820  0.57812564  0.57567545     0.42800
N923        N  0.06328298  0.40668595  0.54761190    -0.46600
Co924      Co  0.00334210  0.48874219  0.93306658     0.73900
C925        C  0.06283168  0.53713320  0.90719805    -0.07000
C926        C  0.93806308  0.58115895  0.53890433    -0.06500
N927        N  0.03981058  0.45692931  0.56184711    -0.26100
N928        N  0.94336225  0.57849315  0.94683981    -0.46800
H929        H  0.05828585  0.60994185  0.52677936     0.06800
C930        C  0.06566899  0.40229029  0.95393762    -0.07000
Cl931      Cl  0.00135800  0.49159503  0.49678379    -0.50000
C932        C  0.93032936  0.40999132  0.91670499     0.42600
H933        H  0.06536880  0.46423628  0.61061148     0.06800
N934        N  0.06369268  0.44134385  0.91052379    -0.46700
C935        C  0.26545545  0.25289477  0.71623352     0.45400
H936        H  0.26795813  0.24936937  0.68800742    -0.03600
C937        C  0.26110605  0.25981272  0.78220848     0.45500
H938        H  0.25876341  0.26291907  0.81045793    -0.03600
C939        C  0.28556070  0.28441479  0.73002263    -0.17300
C940        C  0.22762738  0.26018976  0.72822746    -0.17000
C941        C  0.27995865  0.22143582  0.73628958    -0.17400
C942        C  0.28383871  0.28800067  0.76505282    -0.17400
C943        C  0.22550039  0.26324149  0.76371457    -0.17000
C944        C  0.27781353  0.22492916  0.77144799    -0.17300
C945        C  0.73146459  0.25387976  0.71711591     0.45400
H946        H  0.72722804  0.25283583  0.68901792    -0.03600
C947        C  0.74168462  0.25437638  0.78302644     0.45500
H948        H  0.74622261  0.25477011  0.81119886    -0.03600
C949        C  0.70655364  0.27868322  0.73655220    -0.17300
C950        C  0.72533597  0.21810863  0.73453366    -0.17000
C951        C  0.76847869  0.26662574  0.72695087    -0.17400
C952        C  0.71168501  0.27833800  0.77153909    -0.17400
C953        C  0.73087596  0.21826807  0.76963662    -0.17000
C954        C  0.77370863  0.26661093  0.76211551    -0.17300
C955        C  0.25366454  0.74931319  0.71642094     0.45400
H956        H  0.25738996  0.75278818  0.68841951    -0.03600
C957        C  0.24605550  0.74386313  0.78224917     0.45500
H958        H  0.24287686  0.74158697  0.81046631    -0.03600
C959        C  0.27936090  0.72359580  0.73311951    -0.17300
C960        C  0.26093367  0.78357317  0.73585287    -0.17000
C961        C  0.21721687  0.73497042  0.72646832    -0.17400
C962        C  0.27558403  0.72084559  0.76809934    -0.17400
C963        C  0.25643101  0.78099558  0.77100253    -0.17000
C964        C  0.21327693  0.73254701  0.76188214    -0.17300
C965        C  0.76134548  0.74392803  0.71894695     0.45400
H966        H  0.76276790  0.74472168  0.69044438    -0.03600
C967        C  0.75795200  0.74205600  0.78505189     0.45500
H968        H  0.75425133  0.74008119  0.81289124    -0.03600
C969        C  0.73609171  0.71624681  0.73203453    -0.17300
C970        C  0.79635665  0.73342837  0.73617734    -0.17000
C971        C  0.74727804  0.77832973  0.73491092    -0.17400
C972        C  0.73404356  0.71535727  0.76721130    -0.17400
C973        C  0.79579414  0.73587058  0.77183909    -0.17000
C974        C  0.74563833  0.77704472  0.77041534    -0.17300
C975        C  0.17877183  0.67645863  0.65507880    -0.11400
C976        C  0.14339867  0.67624779  0.66363254     0.15100
C977        C  0.13170937  0.69876743  0.68992824     0.02000
C978        C  0.15583400  0.72029727  0.70710553    -0.15800
C979        C  0.19217030  0.71825085  0.70082841    -0.10600
C980        C  0.20319463  0.69657503  0.67302223     0.08800
C981        C  0.12052468  0.65167041  0.64417266     0.09800
S982        S  0.08692721  0.70000996  0.70420874    -0.24900
H983        H  0.14631182  0.73716310  0.72731576     0.20000
S984        S  0.24760420  0.69267924  0.65840196    -0.30600
H985        H  0.18745852  0.66012418  0.63405219     0.10400
C986        C  0.09713562  0.66317272  0.61849454     0.03600
C987        C  0.08078326  0.63871736  0.59686952    -0.12900
C988        C  0.08746545  0.60276552  0.59993973    -0.08600
C989        C  0.11042397  0.59139347  0.62622501     0.07000
C990        C  0.12636924  0.61576628  0.64798301    -0.13700
S991        S  0.08943554  0.70907952  0.61206995    -0.30600
H992        H  0.06286550  0.64776842  0.57726651     0.11300
S993        S  0.12226888  0.54639393  0.63211048    -0.27700
H994        H  0.14479516  0.60673443  0.66723520     0.08500
H995        H  0.24511847  0.65855515  0.64563123     0.26900
H996        H  0.06547176  0.70580423  0.58485057     0.21700
H997        H  0.12452466  0.53887605  0.59680620     0.27000
H998        H  0.07812799  0.66614331  0.69393573     0.15900
C999        C  0.15103874  0.70049652  0.83194555    -0.11400
C1000       C  0.14554371  0.66580021  0.82208387     0.15100
C1001       C  0.15791119  0.65494509  0.78959100     0.02000
C1002       C  0.17890637  0.67726398  0.76997118    -0.15800
C1003       C  0.18565811  0.71173214  0.78028880    -0.10600
C1004       C  0.17013021  0.72362524  0.81118850     0.08800
C1005       C  0.12795171  0.64141468  0.84659067     0.09800
S1006       S  0.14799573  0.61286438  0.77174663    -0.24900
H1007       H  0.19073490  0.66710087  0.74683990     0.20000
S1008       S  0.17428612  0.76785515  0.82594977    -0.30600
H1009       H  0.14080404  0.70953012  0.85632565     0.10400
C1010       C  0.14562623  0.61246400  0.86105996     0.03600
C1011       C  0.12794390  0.59012693  0.88372981    -0.12900
C1012       C  0.09320461  0.59634660  0.89308940    -0.08600
C1013       C  0.07541455  0.62522528  0.87887255     0.07000
C1014       C  0.09301880  0.64756173  0.85599216    -0.13700
S1015       S  0.19098893  0.60405020  0.85156530    -0.30600
H1016       H  0.14129155  0.56774700  0.89449380     0.11300
S1017       S  0.02986329  0.63280179  0.88860469    -0.27700
H1018       H  0.07945660  0.66969052  0.84499669     0.08500
H1019       H  0.17875936  0.78259213  0.79314892     0.26900
H1020       H  0.19604497  0.57728036  0.87576037     0.21700
H1021       H  0.02449810  0.65971885  0.86462243     0.27000
H1022       H  0.11564595  0.60908738  0.78843274     0.15900
C1023       C  0.14816102  0.35019468  0.88340678    -0.11400
C1024       C  0.13294527  0.34192186  0.85161254     0.15100
C1025       C  0.09971942  0.35580764  0.84341561     0.02000
C1026       C  0.08385136  0.37955955  0.86582736    -0.15800
C1027       C  0.09949029  0.38852389  0.89723885    -0.10600
C1028       C  0.13175927  0.37310722  0.90632182     0.08800
C1029       C  0.15342597  0.32064860  0.82686927     0.09800
S1030       S  0.07593548  0.34367967  0.80521423    -0.24900
H1031       H  0.05850033  0.39030630  0.85918430     0.20000
S1032       S  0.15383955  0.38232178  0.94623336    -0.30600
H1033       H  0.17350940  0.33943455  0.89001601     0.10400
C1034       C  0.16635021  0.33509792  0.79607326     0.03600
C1035       C  0.18733956  0.31480663  0.77444389    -0.12900
C1036       C  0.19661688  0.28053755  0.78305166    -0.08600
C1037       C  0.18297815  0.26586960  0.81354696     0.07000
C1038       C  0.16167736  0.28602435  0.83509518    -0.13700
S1039       S  0.15888517  0.38032062  0.78559653    -0.30600
H1040       H  0.19800934  0.32634356  0.75156973     0.11300
S1041       S  0.19235229  0.22179342  0.82669112    -0.27700
H1042       H  0.15179449  0.27478069  0.85871501     0.08500
H1043       H  0.14157520  0.41664479  0.94950041     0.26900
H1044       H  0.17298091  0.37930247  0.75222657     0.21700
H1045       H  0.19967955  0.20881870  0.79371637     0.27000
H1046       H  0.09120435  0.31059685  0.80155444     0.15900
C1047       C  0.14344720  0.29585925  0.68596005    -0.11400
C1048       C  0.15764900  0.31860096  0.66128940     0.15100
C1049       C  0.19399336  0.31810310  0.65584552     0.02000
C1050       C  0.21536324  0.29785595  0.67693118    -0.15800
C1051       C  0.20188782  0.27647185  0.70325233    -0.10600
C1052       C  0.16498742  0.27386027  0.70591255     0.08800
C1053       C  0.13486564  0.34331640  0.64186663     0.09800
S1054       S  0.21505273  0.34297414  0.62237998    -0.24900
H1055       H  0.24301239  0.29976897  0.67256971     0.20000
S1056       S  0.14362336  0.24216670  0.73275475    -0.30600
H1057       H  0.11539222  0.29503668  0.68950870     0.10400
C1058       C  0.11003363  0.33178022  0.61769096     0.03600
C1059       C  0.09235946  0.35618764  0.59701699    -0.12900
C1060       C  0.09897155  0.39209648  0.59969222    -0.08600
C1061       C  0.12395400  0.40350351  0.62398779     0.07000
C1062       C  0.14090305  0.37919444  0.64517153    -0.13700
S1063       S  0.10205782  0.28591543  0.61177260    -0.30600
H1064       H  0.07334197  0.34715331  0.57850636     0.11300
S1065       S  0.13755185  0.44816548  0.62762333    -0.27700
H1066       H  0.16034861  0.38819592  0.66335244     0.08500
H1067       H  0.17198122  0.21888270  0.73393629     0.26900
H1068       H  0.07351621  0.28949105  0.58922608     0.21700
H1069       H  0.13523853  0.45537004  0.59223153     0.27000
H1070       H  0.18753134  0.34028511  0.59856017     0.15900
C1071       C  0.81054523  0.31996469  0.65356382    -0.11400
C1072       C  0.84610649  0.31411464  0.65916106     0.15100
C1073       C  0.85609180  0.29066723  0.68543443     0.02000
C1074       C  0.83035813  0.27463926  0.70586086    -0.15800
C1075       C  0.79439547  0.28161547  0.70134170    -0.10600
C1076       C  0.78476206  0.30411284  0.67372172     0.08800
C1077       C  0.87133096  0.33537630  0.63870732     0.09800
S1078       S  0.90113731  0.28030376  0.69440826    -0.24900
H1079       H  0.83862812  0.25680134  0.72586168     0.20000
S1080       S  0.74051400  0.31655053  0.66429357    -0.30600
H1081       H  0.80291952  0.33851011  0.63392279     0.10400
C1082       C  0.87209651  0.33403640  0.60242438     0.03600
C1083       C  0.89206197  0.35836290  0.58391115    -0.12900
C1084       C  0.91213132  0.38380538  0.60066963    -0.08600
C1085       C  0.91353329  0.38308494  0.63714946     0.07000
C1086       C  0.89241403  0.35977814  0.65556567    -0.13700
S1087       S  0.84779087  0.30115441  0.57956714    -0.30600
H1088       H  0.89155783  0.35790608  0.55608458     0.11300
S1089       S  0.94330036  0.40908181  0.66198787    -0.27700
H1090       H  0.89249152  0.36061163  0.68342254     0.08500
H1091       H  0.74578220  0.32545520  0.62958125     0.26900
H1092       H  0.86174249  0.30808304  0.54682985     0.21700
H1093       H  0.97134148  0.40475988  0.63899332     0.27000
H1094       H  0.91345640  0.28633083  0.66089787     0.15900
C1095       C  0.89717895  0.36560584  0.83500967    -0.11400
C1096       C  0.86817995  0.34713958  0.84744750     0.15100
C1097       C  0.86078518  0.34862891  0.88314906     0.02000
C1098       C  0.88197243  0.36850009  0.90505116    -0.15800
C1099       C  0.91021349  0.38781251  0.89239803    -0.10600
C1100       C  0.91820408  0.38565772  0.85689472     0.08800
C1101       C  0.84686432  0.32598665  0.82283798     0.09800
S1102       S  0.82422383  0.32667069  0.90255001    -0.24900
H1103       H  0.87567161  0.36971741  0.93217746     0.20000
S1104       S  0.95593743  0.40616852  0.83808762    -0.30600
H1105       H  0.90384694  0.36393409  0.80799459     0.10400
C1106       C  0.82899666  0.34140039  0.79480494     0.03600
C1107       C  0.80753174  0.32084092  0.77367620    -0.12900
C1108       C  0.80287325  0.28515216  0.78006369    -0.08600
C1109       C  0.82205197  0.26949971  0.80705665     0.07000
C1110       C  0.84382971  0.28990737  0.82790681    -0.13700
S1111       S  0.83069712  0.38780503  0.78768040    -0.30600
H1112       H  0.79224276  0.33311102  0.75358388     0.11300
S1113       S  0.81937859  0.22368092  0.81651717    -0.27700
H1114       H  0.85803318  0.27764161  0.84879043     0.08500
H1115       H  0.97834945  0.39825888  0.86573668     0.26900
H1116       H  0.80987789  0.38853456  0.75786832     0.21700
H1117       H  0.81102401  0.21335075  0.78286860     0.27000
H1118       H  0.80243947  0.32935759  0.87378014     0.15900
C1119       C  0.84238563  0.69958759  0.85011568    -0.11400
C1120       C  0.87005763  0.68227439  0.83403206     0.15100
C1121       C  0.88033662  0.69324806  0.80094199     0.02000
C1122       C  0.85898340  0.71675235  0.78282008    -0.15800
C1123       C  0.82615779  0.72706936  0.79594541    -0.10600
C1124       C  0.82199268  0.72376132  0.83210928     0.08800
C1125       C  0.88736025  0.65349504  0.85287834     0.09800
S1126       S  0.91833687  0.67627170  0.77922194    -0.24900
H1127       H  0.86714991  0.72462717  0.75747065     0.20000
S1128       S  0.79867827  0.75481331  0.85820357    -0.30600
H1129       H  0.83728665  0.69492619  0.87712868     0.10400
C1130       C  0.91358446  0.66003785  0.87732218     0.03600
C1131       C  0.92657325  0.63254971  0.89733176    -0.12900
C1132       C  0.91363524  0.59848951  0.89381291    -0.08600
C1133       C  0.88721100  0.59205881  0.86925812     0.07000
C1134       C  0.87470654  0.61951106  0.84878964    -0.13700
S1135       S  0.93038934  0.70348761  0.88304257    -0.30600
H1136       H  0.94700936  0.63768673  0.91587034     0.11300
S1137       S  0.86677197  0.55019948  0.86435976    -0.27700
H1138       H  0.85393613  0.61465082  0.83047889     0.08500
H1139       H  0.79852361  0.78104111  0.83290108     0.26900
H1140       H  0.95453087  0.69535007  0.90914793     0.21700
H1141       H  0.86885012  0.54099110  0.89930650     0.27000
H1142       H  0.93636909  0.66461438  0.80848984     0.15900
C1143       C  0.84810585  0.65544544  0.69884759    -0.11400
C1144       C  0.86053955  0.66968649  0.66814358     0.15100
C1145       C  0.85375499  0.70513034  0.66119433     0.02000
C1146       C  0.83386048  0.72495935  0.68441211    -0.15800
C1147       C  0.82065214  0.71074620  0.71512260    -0.10600
C1148       C  0.82835451  0.67493376  0.72222091     0.08800
C1149       C  0.87808708  0.64593238  0.64313668     0.09800
S1150       S  0.86973961  0.72660944  0.62313978    -0.24900
H1151       H  0.82851051  0.75193052  0.67832218     0.20000
S1152       S  0.81525178  0.65087249  0.75992812    -0.30600
H1153       H  0.85308611  0.62819698  0.70425184     0.10400
C1154       C  0.90922922  0.62800259  0.65150080     0.03600
C1155       C  0.92296943  0.60336775  0.62847100    -0.12900
C1156       C  0.90678801  0.59669559  0.59673648    -0.08600
C1157       C  0.87605338  0.61521831  0.58807045     0.07000
C1158       C  0.86199423  0.63935843  0.61133796    -0.13700
S1159       S  0.93231506  0.63741068  0.69090880    -0.30600
H1160       H  0.94694136  0.58980070  0.63483784     0.11300
S1161       S  0.85299312  0.60871030  0.54816883    -0.27700
H1162       H  0.83790824  0.65270582  0.60486443     0.08500
H1163       H  0.78632022  0.67093251  0.76781699     0.26900
H1164       H  0.96171818  0.61642455  0.68435453     0.21700
H1165       H  0.86229055  0.57356916  0.54411956     0.27000
H1166       H  0.89967197  0.70571480  0.61918632     0.15900
C1167       C  0.66839526  0.09883341  0.87933081    -0.11400
C1168       C  0.65340528  0.12133366  0.85509871     0.15100
C1169       C  0.61663088  0.12220894  0.85177988     0.02000
C1170       C  0.59574517  0.10339232  0.87482633    -0.15800
C1171       C  0.61060567  0.08195829  0.90026844    -0.10600
C1172       C  0.64758093  0.07835148  0.90102349     0.08800
C1173       C  0.67634649  0.14545229  0.83542174     0.09800
S1174       S  0.59502978  0.14674806  0.81841437    -0.24900
H1175       H  0.56756705  0.10544681  0.87275430     0.20000
S1176       S  0.67012348  0.04632976  0.92662627    -0.30600
H1177       H  0.69659764  0.09703346  0.88119438     0.10400
C1178       C  0.67536222  0.18144727  0.84174027     0.03600
C1179       C  0.69504829  0.20390868  0.82118672    -0.12900
C1180       C  0.71632142  0.19164116  0.79423364    -0.08600
C1181       C  0.72013348  0.15514109  0.79042832     0.07000
C1182       C  0.69962844  0.13255387  0.81055020    -0.13700
S1183       S  0.64873672  0.19909106  0.87593180    -0.30600
H1184       H  0.69218817  0.23147851  0.82529133     0.11300
S1185       S  0.75162204  0.13554597  0.76194468    -0.27700
H1186       H  0.70173379  0.10473325  0.80672120     0.08500
H1187       H  0.64560516  0.01991815  0.92013047     0.26900
H1188       H  0.65917592  0.23393551  0.87225848     0.21700
H1189       H  0.77300187  0.16499017  0.75860055     0.27000
H1190       H  0.62153981  0.14176168  0.79388233     0.15900
C1191       C  0.64835605  0.12865537  0.61383008    -0.11400
C1192       C  0.65047814  0.11955534  0.64879646     0.15100
C1193       C  0.62952462  0.09194839  0.66108862     0.02000
C1194       C  0.60634028  0.07518189  0.63872932    -0.15800
C1195       C  0.60406555  0.08444823  0.60383947    -0.10600
C1196       C  0.62559279  0.11141746  0.59132493     0.08800
C1197       C  0.67116225  0.14206397  0.67244680     0.09800
S1198       S  0.63142264  0.07653343  0.70490794    -0.24900
H1199       H  0.59051507  0.05408252  0.64858206     0.20000
S1200       S  0.62389659  0.12631775  0.54739889    -0.30600
H1201       H  0.66360952  0.15028361  0.60423573     0.10400
C1202       C  0.70719459  0.14832694  0.66782508     0.03600
C1203       C  0.72424173  0.17285292  0.68873449    -0.12900
C1204       C  0.70651148  0.19014268  0.71530381    -0.08600
C1205       C  0.67066348  0.18276805  0.72067001     0.07000
C1206       C  0.65351623  0.15924058  0.69901656    -0.13700
S1207       S  0.73169685  0.12461465  0.63587140    -0.30600
H1208       H  0.75158542  0.17861390  0.68448366     0.11300
S1209       S  0.64517827  0.20565005  0.75239457    -0.27700
H1210       H  0.62575636  0.15487590  0.70205420     0.08500
H1211       H  0.58770502  0.12147311  0.54340943     0.26900
H1212       H  0.76498129  0.13575801  0.64646747     0.21700
H1213       H  0.61299884  0.18930323  0.74609923     0.27000
H1214       H  0.66646022  0.08579346  0.71068437     0.15900
C1215       C  0.37737450  0.09819981  0.66278176    -0.11400
C1216       C  0.35692380  0.12534365  0.64930194     0.15100
C1217       C  0.35815795  0.13190856  0.61350354     0.02000
C1218       C  0.37867725  0.11065881  0.59215213    -0.15800
C1219       C  0.39937988  0.08364095  0.60563575    -0.10600
C1220       C  0.39818368  0.07720771  0.64152610     0.08800
C1221       C  0.33614882  0.14726402  0.67351861     0.09800
S1222       S  0.33542023  0.16782212  0.59353464    -0.24900
H1223       H  0.37940509  0.11607298  0.56482915     0.20000
S1224       S  0.42103065  0.04163603  0.66180962    -0.30600
H1225       H  0.37672448  0.09300377  0.69017136     0.10400
C1226       C  0.29927380  0.14883609  0.67274021     0.03600
C1227       C  0.28152598  0.17244524  0.69425825    -0.12900
C1228       C  0.29970604  0.19361230  0.71756121    -0.08600
C1229       C  0.33650893  0.19043161  0.71959147     0.07000
C1230       C  0.35416398  0.16746120  0.69759399    -0.13700
S1231       S  0.27482819  0.12037978  0.64485039    -0.30600
H1232       H  0.25335799  0.17470669  0.69280696     0.11300
S1233       S  0.36175726  0.21665439  0.74866046    -0.27700
H1234       H  0.38241736  0.16584920  0.69837230     0.08500
H1235       H  0.41229048  0.01735117  0.63620576     0.26900
H1236       H  0.24141538  0.13239505  0.65417115     0.21700
H1237       H  0.39473671  0.20238448  0.74115443     0.27000
H1238       H  0.33720668  0.19037341  0.62187163     0.15900
C1239       C  0.34794083  0.12579119  0.89403438    -0.11400
C1240       C  0.35308453  0.12695275  0.85835848     0.15100
C1241       C  0.38292090  0.11060784  0.84429370     0.02000
C1242       C  0.40603801  0.09260348  0.86599303    -0.15800
C1243       C  0.40109179  0.09156389  0.90185062    -0.10600
C1244       C  0.37175549  0.10906073  0.91587566     0.08800
C1245       C  0.33043419  0.15052289  0.83780298     0.09800
S1246       S  0.39365288  0.11241707  0.79911651    -0.24900
H1247       H  0.42821665  0.07954043  0.85455117     0.20000
S1248       S  0.36400815  0.11291681  0.96142055    -0.30600
H1249       H  0.32587971  0.13950228  0.90513735     0.10400
C1250       C  0.30669009  0.13904403  0.81259587     0.03600
C1251       C  0.28867758  0.16372054  0.79229867    -0.12900
C1252       C  0.29391624  0.19974056  0.79671386    -0.08600
C1253       C  0.31641426  0.21065363  0.82370470     0.07000
C1254       C  0.33423540  0.18601875  0.84351407    -0.13700
S1255       S  0.29946787  0.09316742  0.80635829    -0.30600
H1256       H  0.27088736  0.15495691  0.77251470     0.11300
S1257       S  0.32643462  0.25542425  0.83201771    -0.27700
H1258       H  0.35264734  0.19437419  0.86293001     0.08500
H1259       H  0.39931025  0.11863468  0.96977294     0.26900
H1260       H  0.27417683  0.09657108  0.78030612     0.21700
H1261       H  0.34381985  0.25056509  0.86348366     0.27000
H1262       H  0.37890357  0.14519707  0.79229276     0.15900
C1263       C  0.63086272  0.84051467  0.62540222    -0.11400
C1264       C  0.65574488  0.85924910  0.64445496     0.15100
C1265       C  0.65678758  0.89584223  0.64075385     0.02000
C1266       C  0.63322577  0.91263774  0.61842540    -0.15800
C1267       C  0.60803098  0.89391979  0.59987378    -0.10600
C1268       C  0.60727684  0.85734322  0.60312306     0.08800
C1269       C  0.67957769  0.83999306  0.66842426     0.09800
S1270       S  0.68695652  0.92266734  0.66439563    -0.24900
H1271       H  0.63402278  0.94072306  0.61610084     0.20000
S1272       S  0.57682655  0.83070021  0.57962815    -0.30600
H1273       H  0.62978873  0.81248705  0.62792998     0.10400
C1274       C  0.66691108  0.82526535  0.69913896     0.03600
C1275       C  0.68957577  0.80639864  0.72064638    -0.12900
C1276       C  0.72539616  0.80258130  0.71314985    -0.08600
C1277       C  0.73825221  0.81833801  0.68274493     0.07000
C1278       C  0.71529385  0.83647352  0.66068627    -0.13700
S1279       S  0.62168311  0.83048046  0.71126830    -0.30600
H1280       H  0.67878185  0.79350472  0.74279911     0.11300
S1281       S  0.78366665  0.81650916  0.67063861    -0.27700
H1282       H  0.72537715  0.84804926  0.63731765     0.08500
H1283       H  0.57363066  0.85279548  0.55096572     0.26900
H1284       H  0.62562672  0.81937810  0.74555139     0.21700
H1285       H  0.79694661  0.81242700  0.70410692     0.27000
H1286       H  0.68828014  0.90167788  0.69398848     0.15900
C1287       C  0.62201516  0.87002158  0.84510123    -0.11400
C1288       C  0.65579661  0.86236194  0.85700365     0.15100
C1289       C  0.66457635  0.87079285  0.89119799     0.02000
C1290       C  0.63989003  0.88722996  0.91228759    -0.15800
C1291       C  0.60601984  0.89558089  0.90047203    -0.10600
C1292       C  0.59696994  0.88576028  0.86645336     0.08800
C1293       C  0.67927568  0.84110864  0.83491835     0.09800
S1294       S  0.70613383  0.85962522  0.91028596    -0.24900
H1295       H  0.64764423  0.89344576  0.93823760     0.20000
S1296       S  0.55364733  0.89068355  0.84900863    -0.30600
H1297       H  0.61464635  0.86229930  0.81932088     0.10400
C1298       C  0.67584219  0.80475374  0.83420180     0.03600
C1299       C  0.69796115  0.78507501  0.81327481    -0.12900
C1300       C  0.72386257  0.80053515  0.79268173    -0.08600
C1301       C  0.72785396  0.83700976  0.79388239     0.07000
C1302       C  0.70515472  0.85702382  0.81461030    -0.13700
S1303       S  0.64321386  0.78317097  0.86012170    -0.30600
H1304       H  0.69461543  0.75731387  0.81280696     0.11300
S1305       S  0.76277136  0.85782974  0.77057470    -0.23900
H1306       H  0.70786842  0.88500981  0.81556641     0.08500
H1307       H  0.53710866  0.87731982  0.87849376     0.26900
H1308       H  0.65061032  0.74900279  0.84942041     0.21700
H1309       H  0.75631909  0.89172751  0.78256173     0.27000
H1310       H  0.72611854  0.86188857  0.88017671     0.15900
C1311       C  0.33760921  0.87221024  0.89228160    -0.11400
C1312       C  0.34227814  0.87031461  0.85658906     0.15100
C1313       C  0.37217902  0.88606486  0.84191752     0.02000
C1314       C  0.39669753  0.90252503  0.86331914    -0.15800
C1315       C  0.39272143  0.90324064  0.89929137    -0.10600
C1316       C  0.36257120  0.88758671  0.91369278     0.08800
C1317       C  0.31753013  0.84831091  0.83657975     0.09800
S1318       S  0.38118350  0.88611034  0.79635491    -0.24900
H1319       H  0.41915208  0.91477694  0.85157788     0.20000
S1320       S  0.35493854  0.88434310  0.95927346    -0.30600
H1321       H  0.31499578  0.85992257  0.90378358     0.10400
C1322       C  0.31704051  0.81205491  0.84160058     0.03600
C1323       C  0.29438518  0.79142129  0.82221553    -0.12900
C1324       C  0.27248554  0.80569147  0.79666687    -0.08600
C1325       C  0.27056318  0.84243865  0.79402833     0.07000
C1326       C  0.29346129  0.86327506  0.81351549    -0.13700
S1327       S  0.34749838  0.79115882  0.87052853    -0.30600
H1328       H  0.29642237  0.76359937  0.82516219     0.11300
S1329       S  0.23862313  0.86428032  0.76759934    -0.27700
H1330       H  0.29249399  0.89129992  0.81073642     0.08500
H1331       H  0.38962857  0.87503268  0.96712737     0.26900
H1332       H  0.32770370  0.76069130  0.87470949     0.21700
H1333       H  0.21509946  0.83629902  0.76607719     0.27000
H1334       H  0.36068021  0.85746447  0.78741593     0.15900
C1335       C  0.35166732  0.85599188  0.61641545    -0.11400
C1336       C  0.34593802  0.87138841  0.64863270     0.15100
C1337       C  0.36587611  0.90075940  0.65808793     0.02000
C1338       C  0.39096337  0.91390436  0.63531441    -0.15800
C1339       C  0.39633756  0.89875922  0.60292120    -0.10600
C1340       C  0.37651528  0.86944611  0.59344669     0.08800
C1341       C  0.32262575  0.85328099  0.67335926     0.09800
S1342       S  0.36052573  0.92263187  0.69875680    -0.24900
H1343       H  0.40582007  0.93668929  0.64262342     0.20000
S1344       S  0.38432835  0.84781967  0.55300215    -0.30600
H1345       H  0.33724345  0.83278265  0.60973627     0.10400
C1346       C  0.28643580  0.84960808  0.66780221     0.03600
C1347       C  0.26666893  0.82837843  0.68993770    -0.12900
C1348       C  0.28222456  0.81082532  0.71776371    -0.08600
C1349       C  0.31862440  0.81546836  0.72353557     0.07000
C1350       C  0.33801674  0.83687017  0.70158997    -0.13700
S1351       S  0.26554971  0.87162743  0.63229760    -0.30600
H1352       H  0.23912474  0.82447231  0.68494959     0.11300
S1353       S  0.34235358  0.79159172  0.75578934    -0.27700
H1354       H  0.36591188  0.83957639  0.70528490     0.08500
H1355       H  0.35847677  0.82215737  0.55664356     0.26900
H1356       H  0.23103417  0.86334004  0.64154155     0.21700
H1357       H  0.37611380  0.80379156  0.74836718     0.27000
H1358       H  0.32540830  0.91333267  0.70384766     0.15900
C1359       C  0.39030901  0.61866836  0.83554295    -0.11400
C1360       C  0.37510203  0.64766489  0.85143236     0.15100
C1361       C  0.37980842  0.65359659  0.88673923     0.02000
C1362       C  0.39819200  0.62939065  0.90598547    -0.15800
C1363       C  0.41255348  0.59991253  0.89037448    -0.10600
C1364       C  0.40956131  0.59473820  0.85470554     0.08800
C1365       C  0.35048586  0.66845939  0.83164871     0.09800
S1366       S  0.36249660  0.69119899  0.90843133    -0.24900
H1367       H  0.40133600  0.63350686  0.93340194     0.20000
S1368       S  0.42881553  0.55838570  0.83219705    -0.30600
H1369       H  0.38639186  0.61430649  0.80828508     0.10400
C1370       C  0.36175041  0.69105540  0.80578675     0.03600
C1371       C  0.33681447  0.70745195  0.78536857    -0.12900
C1372       C  0.30083434  0.70242456  0.79079509    -0.08600
C1373       C  0.28993556  0.68065083  0.81796608     0.07000
C1374       C  0.31494642  0.66360950  0.83784892    -0.13700
S1375       S  0.40771831  0.69917538  0.79908508    -0.30600
H1376       H  0.34567821  0.72371845  0.76473527     0.11300
S1377       S  0.24476054  0.67144016  0.82610738    -0.27700
H1378       H  0.30691987  0.64558012  0.85775270     0.08500
H1379       H  0.45150673  0.54677394  0.85817923     0.26900
H1380       H  0.40374973  0.72425415  0.77298573     0.21700
H1381       H  0.24931675  0.65832175  0.85959602     0.27000
H1382       H  0.36763259  0.71355696  0.88031156     0.15900
C1383       C  0.36261805  0.64606680  0.61587099    -0.11400
C1384       C  0.37941176  0.65625227  0.64616001     0.15100
C1385       C  0.41519470  0.64871501  0.65104957     0.02000
C1386       C  0.43305999  0.62993568  0.62571901    -0.15800
C1387       C  0.41569244  0.61842974  0.59611760    -0.10600
C1388       C  0.38045169  0.62769451  0.59061109     0.08800
C1389       C  0.35788323  0.67405633  0.67183542     0.09800
S1390       S  0.43943344  0.66154464  0.68881289    -0.24900
H1391       H  0.46020617  0.62298789  0.62977559     0.20000
S1392       S  0.35692806  0.61754171  0.55169757    -0.30600
H1393       H  0.33531686  0.65254491  0.61192665     0.10400
C1394       C  0.35404253  0.71038045  0.67134409     0.03600
C1395       C  0.32832132  0.72573933  0.69177030    -0.12900
C1396       C  0.30664112  0.70553075  0.71287132    -0.08600
C1397       C  0.31087143  0.66895467  0.71344290     0.07000
C1398       C  0.33677533  0.65374066  0.69322946    -0.13700
S1399       S  0.38092258  0.73694024  0.64369311    -0.30600
H1400       H  0.32463185  0.75354041  0.69075921     0.11300
S1401       S  0.28206695  0.63992604  0.73628248    -0.27700
H1402       H  0.33923391  0.62565039  0.69264048     0.08500
H1403       H  0.38607616  0.62022247  0.52984626     0.26900
H1404       H  0.36747271  0.76932193  0.65418826     0.21700
H1405       H  0.25220396  0.66098808  0.73345797     0.27000
H1406       H  0.41122781  0.67071433  0.70999030     0.15900
C1407       C  0.65314178  0.67011514  0.80234656    -0.11400
C1408       C  0.66833440  0.64827396  0.82700986     0.15100
C1409       C  0.70468625  0.64928955  0.83265522     0.02000
C1410       C  0.72511963  0.67195777  0.81324563    -0.15800
C1411       C  0.71024391  0.69295796  0.78755113    -0.10600
C1412       C  0.67357864  0.69300689  0.78297310     0.08800
C1413       C  0.64499217  0.62732883  0.84866207     0.09800
S1414       S  0.72643048  0.62296023  0.86464097    -0.24900
H1415       H  0.75299855  0.67281766  0.81794826     0.20000
S1416       S  0.65200240  0.72467149  0.75594082    -0.30600
H1417       H  0.62500504  0.67014862  0.79941118     0.10400
C1418       C  0.63570675  0.63858624  0.88180710     0.03600
C1419       C  0.61274174  0.61848629  0.90133779    -0.12900
C1420       C  0.59861764  0.58764749  0.88819101    -0.08600
C1421       C  0.60738795  0.57675444  0.85470782     0.07000
C1422       C  0.63077438  0.59662022  0.83533712    -0.13700
S1423       S  0.65242664  0.67894341  0.89885509    -0.30600
H1424       H  0.60560348  0.62681239  0.92697125     0.11300
S1425       S  0.58894891  0.53867389  0.83490217    -0.27700
H1426       H  0.63758052  0.58842788  0.80953913     0.08500
H1427       H  0.61813116  0.71082510  0.75841737     0.26900
H1428       H  0.63536752  0.67721061  0.93081918     0.21700
H1429       H  0.55731577  0.53883422  0.85322323     0.27000
H1430       H  0.70254378  0.59528678  0.86415304     0.15900
C1431       C  0.61056901  0.64567733  0.64195801    -0.11400
C1432       C  0.64662740  0.64590449  0.63610243     0.15100
C1433       C  0.66112509  0.62539713  0.60973254     0.02000
C1434       C  0.63920314  0.60477305  0.58983776    -0.15800
C1435       C  0.60302179  0.60473988  0.59533194    -0.10600
C1436       C  0.58857633  0.62503088  0.62204788     0.08800
C1437       C  0.66898028  0.66426023  0.66053433     0.09800
S1438       S  0.70729569  0.62446292  0.60036315    -0.24900
H1439       H  0.65040544  0.58938986  0.56925817     0.20000
S1440       S  0.54293249  0.62414188  0.63351729    -0.30600
H1441       H  0.59972979  0.66071716  0.66295901     0.10400
C1442       C  0.67251496  0.70052594  0.65982440     0.03600
C1443       C  0.69522290  0.71631282  0.68308013    -0.12900
C1444       C  0.71368694  0.69667370  0.70767512    -0.08600
C1445       C  0.71001292  0.66005990  0.70799928     0.07000
C1446       C  0.68757187  0.64440179  0.68442103    -0.13700
S1447       S  0.64842154  0.72662040  0.62924797    -0.30600
H1448       H  0.69785730  0.74421781  0.68265974     0.11300
S1449       S  0.73436763  0.63232094  0.73660586    -0.27700
H1450       H  0.68452345  0.61641726  0.68420568     0.08500
H1451       H  0.53776378  0.58903458  0.62484505     0.26900
H1452       H  0.66460381  0.75843559  0.63709039     0.21700
H1453       H  0.72149424  0.60018541  0.72506194     0.27000
H1454       H  0.71406823  0.65888618  0.61044050     0.15900
C1455       C  0.60547618  0.38309552  0.84745736    -0.11400
C1456       C  0.61366658  0.34958842  0.85912752     0.15100
C1457       C  0.60159215  0.33824086  0.89144054     0.02000
C1458       C  0.58272423  0.36124759  0.91209833    -0.15800
C1459       C  0.57590323  0.39532638  0.90106256    -0.10600
C1460       C  0.58647917  0.40600686  0.86800740     0.08800
C1461       C  0.63810535  0.32879851  0.83859392     0.09800
S1462       S  0.61149076  0.29572424  0.90848617    -0.24900
H1463       H  0.57466814  0.35300552  0.93754626     0.20000
S1464       S  0.57678007  0.44844746  0.85072776    -0.30600
H1465       H  0.61470385  0.39168365  0.82251407     0.10400
C1466       C  0.62642985  0.30706492  0.81211286     0.03600
C1467       C  0.65100868  0.29036989  0.79133240    -0.12900
C1468       C  0.68711702  0.29528567  0.79619181    -0.08600
C1469       C  0.69854925  0.31682884  0.82325055     0.07000
C1470       C  0.67387552  0.33325749  0.84422622    -0.13700
S1471       S  0.58029677  0.30112336  0.80443805    -0.30600
H1472       H  0.64200766  0.27439700  0.77048309     0.11300
S1473       S  0.74399601  0.32640057  0.82958030    -0.27700
H1474       H  0.68228374  0.35065549  0.86444840     0.08500
H1475       H  0.54550612  0.45342705  0.86904285     0.26900
H1476       H  0.58368929  0.27622567  0.77819172     0.21700
H1477       H  0.74025644  0.34637779  0.85959842     0.27000
H1478       H  0.61094291  0.27850200  0.87669747     0.15900
C1479       C  0.64008552  0.32206875  0.67660385    -0.11400
C1480       C  0.64238905  0.35661159  0.68754554     0.15100
C1481       C  0.66400356  0.36513233  0.71550841     0.02000
C1482       C  0.68450978  0.33922750  0.73051092    -0.15800
C1483       C  0.68278926  0.30436501  0.71947634    -0.10600
C1484       C  0.66000477  0.29579938  0.69210584     0.08800
C1485       C  0.62492448  0.38322925  0.66640082     0.09800
S1486       S  0.66728071  0.40859282  0.73255785    -0.24900
H1487       H  0.70250677  0.34656310  0.75073620     0.20000
S1488       S  0.65638174  0.25224699  0.67559510    -0.30600
H1489       H  0.62340604  0.31603265  0.65493828     0.10400
C1490       C  0.64413908  0.40374225  0.64316133     0.03600
C1491       C  0.62627861  0.42464006  0.61948236    -0.12900
C1492       C  0.58961185  0.42492789  0.61817252    -0.08600
C1493       C  0.57054409  0.40595050  0.64298743     0.07000
C1494       C  0.58839436  0.38496408  0.66653134    -0.13700
S1495       S  0.69128173  0.40100375  0.64155255    -0.30600
H1496       H  0.64103036  0.43906236  0.60056603     0.11300
S1497       S  0.52360579  0.40713786  0.64591532    -0.27700
H1498       H  0.57374360  0.36927993  0.68462418     0.08500
H1499       H  0.63284422  0.25934486  0.64869708     0.26900
H1500       H  0.69622438  0.42567187  0.61528595     0.21700
H1501       H  0.52050755  0.44226713  0.63614950     0.27000
H1502       H  0.63394864  0.41976026  0.72200799     0.15900
C1503       C  0.34920092  0.35062607  0.80557024    -0.11400
C1504       C  0.32839989  0.36622074  0.83070074     0.15100
C1505       C  0.29230735  0.35906185  0.83178498     0.02000
C1506       C  0.27849314  0.33440604  0.80917120    -0.15800
C1507       C  0.29971573  0.31700341  0.78518437    -0.10600
C1508       C  0.33558631  0.32586163  0.78311453     0.08800
C1509       C  0.34699462  0.38485446  0.85817785     0.09800
S1510       S  0.26268654  0.37873024  0.86221481    -0.24900
H1511       H  0.25098742  0.32819665  0.81084320     0.20000
S1512       S  0.36613376  0.30247154  0.75659683    -0.30600
H1513       H  0.37699369  0.35588615  0.80551349     0.10400
C1514       C  0.36478646  0.36598407  0.88389572     0.03600
C1515       C  0.38709659  0.38330314  0.90642579    -0.12900
C1516       C  0.39208790  0.41921917  0.90385827    -0.08600
C1517       C  0.37420998  0.43823404  0.87803094     0.07000
C1518       C  0.35181710  0.42081304  0.85547245    -0.13700
S1519       S  0.35938171  0.31964299  0.88804145    -0.30600
H1520       H  0.40024171  0.36881478  0.92654755     0.11300
S1521       S  0.38029629  0.48415494  0.87114151    -0.27700
H1522       H  0.33899451  0.43510515  0.83497253     0.08500
H1523       H  0.39328906  0.32701161  0.75794709     0.26900
H1524       H  0.38859950  0.31379226  0.90926778     0.21700
H1525       H  0.41612344  0.48404814  0.87925641     0.27000
H1526       H  0.28482750  0.40499645  0.87430208     0.15900
C1527       C  0.38470083  0.39864546  0.66178998    -0.11400
C1528       C  0.35726034  0.38196696  0.64463242     0.15100
C1529       C  0.34962329  0.39023353  0.61010772     0.02000
C1530       C  0.37141029  0.41329718  0.59274648    -0.15800
C1531       C  0.39993012  0.42857372  0.60944350    -0.10600
C1532       C  0.40599993  0.42227444  0.64445925     0.08800
C1533       C  0.33721820  0.35630073  0.66392033     0.09800
S1534       S  0.31341582  0.37201815  0.58635424    -0.24900
H1535       H  0.36673183  0.41860839  0.56575372     0.20000
S1536       S  0.44041064  0.44465923  0.66703637    -0.30600
H1537       H  0.38963643  0.39267900  0.68857486     0.10400
C1538       C  0.34529627  0.32065209  0.66234706     0.03600
C1539       C  0.32699907  0.29752929  0.68336361    -0.12900
C1540       C  0.30168191  0.30977717  0.70640720    -0.08600
C1541       C  0.29211961  0.34534197  0.70607633     0.07000
C1542       C  0.31052548  0.36830890  0.68518976    -0.13700
S1543       S  0.37960820  0.30494569  0.63454766    -0.30600
H1544       H  0.33345283  0.27008516  0.68309456     0.11300
S1545       S  0.25554733  0.36176552  0.73034521    -0.27700
H1546       H  0.30431618  0.39580002  0.68535263     0.08500
H1547       H  0.43046888  0.43412815  0.70026210     0.26900
H1548       H  0.37759227  0.26979397  0.64443245     0.21700
H1549       H  0.25539030  0.39571063  0.71684321     0.27000
H1550       H  0.29596908  0.35547008  0.61347033     0.15900
loop_ 
_geom_bond_atom_site_label_1 
_geom_bond_atom_site_label_2 
_geom_bond_distance 
_geom_bond_site_symmetry_2 
_ccdc_geom_bond_type 
C1           N19   1.350       .  A
C1           C38   1.452       .  S
C1          C756   1.454       .  S
N2           N19   1.323       .  A
N2           N24   1.318       .  A
N2          Co39   2.076       .  S
C3           N28   1.339       .  A
C3           C41   1.455       .  S
C3           H48   1.082       .  S
H4           C45   1.081       .  S
C5           N29   1.332       .  A
C5            C9   1.450       .  S
C5           H34   1.081       .  S
Co6          N24   2.066       .  S
Co6          N14   2.075       .  S
Co6         N821   2.088   1_554  S
Co6         N797   2.072   1_554  S
Co6         Cl50   2.436   1_554  S
N7           C45   1.337       .  A
N7           N14   1.318       .  A
N7         Co783   2.073   1_554  S
Co8          N28   2.077       .  S
Co8          N15   2.074       .  S
Co8         N782   2.073       .  S
Co8         N786   2.079       .  S
Co8        Cl825   2.445       .  S
C9           N47   1.351       .  A
C9          C660   1.461       .  S
N10          N17   1.318       .  A
N10          N40   1.324       .  A
N10        Co818   2.078   1_554  S
N11          N29   1.317       .  A
N11          N47   1.323       .  A
N11        Co783   2.083   1_554  S
N12          C41   1.346       .  A
N12          N22   1.321       .  A
H13          C38   1.082       .  S
N14          N35   1.323       .  A
N15          N33   1.316       .  A
N15          N20   1.324       .  A
C16          N20   1.351       .  A
C16          C44   1.455       .  S
C16         C645   1.467       .  S
N17          C32   1.337       .  A
N17         Co39   2.068       .  S
C18          N46   1.342       .  A
C18          C21   1.463       .  S
C18          H52   1.081       .  S
C21          N42   1.344       .  A
C21         C741   1.470       .  S
N22          N28   1.320       .  A
N22        Co781   2.072       .  S
N23          C49   1.337       .  A
N23          N25   1.316       .  A
N23        Co814   2.069       .  S
N24          C38   1.333       .  A
N25          N53   1.318       .  A
N25         Co43   2.058       .  S
H26          C49   1.081       .  S
H27          C44   1.082       .  S
N29        Co818   2.047   1_554  S
N30          N42   1.321       .  A
N30          N46   1.318       .  A
N30        Co814   2.061       .  S
C31          N35   1.349       .  A
C31          C45   1.458       .  S
C31         C717   1.470       .  S
C32          C51   1.453       .  S
C32          H36   1.081       .  S
N33          C44   1.332       .  A
N33         Co43   2.063       .  S
C37          N53   1.345       .  A
C37          C49   1.456       .  S
C37         C588   1.449       .  S
Co39        N798   2.069   1_554  S
Co39        N805   2.061   1_554  S
Co39        Cl50   2.450   1_554  S
N40          C51   1.347       .  A
C41         C684   1.458       .  S
Co43        N785   2.074       .  S
Co43        N804   2.061       .  S
Co43       Cl825   2.435       .  S
N46        Co781   2.088       .  S
Cl50       Co783   2.446       .  S
Cl50       Co818   2.429       .  S
C51         C612   1.460       .  S
C54          N72   1.350       .  A
C54          C91   1.464       .  S
C54         C492   1.482       .  S
N55          N72   1.325       .  A
N55          N77   1.321       .  A
N55         Co92   2.088       .  S
C56          N81   1.342       .  A
C56          C94   1.460       .  S
C56         H101   1.081       .  S
H57          C98   1.081       .  S
C58          N82   1.348       .  A
C58          C62   1.473       .  S
C58          H87   1.082       .  S
Co59         N77   2.091       .  S
Co59         N67   2.104       .  S
Co59         N99   2.100   1_565  S
Co59         N75   2.093   1_565  S
Co59       Cl103   2.471       .  S
N60          C98   1.343       .  A
N60          N67   1.321       .  A
N60         Co61   2.093   1_554  S
Co61         N81   2.090   1_566  S
Co61        N839   2.084       .  S
Co61        N843   2.088   1_565  S
Co61       Cl103   2.444   1_556  S
C62         N100   1.349       .  A
C62         C540   1.498       .  S
N63          N70   1.322       .  A
N63          N93   1.327       .  A
N63         Co96   2.101       .  S
N64          N82   1.322       .  A
N64         N100   1.324       .  A
N64        Co836   2.084       .  S
N65          C94   1.352       .  A
N65          N75   1.326       .  A
H66          C91   1.082       .  S
N67          N88   1.328       .  A
N68          N86   1.321       .  A
N68          N73   1.324       .  A
N68        Co836   2.090   1_545  S
C69          N73   1.352       .  A
C69          C97   1.468       .  S
C69         C468   1.494       .  S
N70          C85   1.342       .  A
N70        Co867   2.093       .  S
C71          N99   1.343       .  A
C71          C74   1.466       .  S
C71         H105   1.082       .  S
C74          N95   1.351       .  A
C74         C420   1.488       .  S
N75          N81   1.321       .  A
N76         C102   1.340       .  A
N76          N78   1.322       .  A
N76        Co867   2.091   1_545  S
N77          C91   1.342       .  A
N78         N106   1.329       .  A
N78         Co96   2.105   1_545  S
H79         C102   1.080       .  S
H80          C97   1.081       .  S
N82         Co96   2.111       .  S
N83          N95   1.327       .  A
N83          N99   1.321       .  A
N83         Co92   2.091   1_545  S
C84          N88   1.355       .  A
C84          C98   1.463       .  S
C84         C564   1.491       .  S
C85         C104   1.464       .  S
C85          H89   1.082       .  S
N86          C97   1.342       .  A
N86         Co96   2.094   1_545  S
C90         N106   1.356       .  A
C90         C102   1.464       .  S
C90         C396   1.497       .  S
Co92        N845   2.086   1_554  S
Co92        N851   2.090   1_564  S
Co92       Cl103   2.442       .  S
N93         C104   1.355       .  A
C94         C444   1.484       .  S
Co96       Cl878   2.472       .  S
Cl103      Co871   2.473   1_554  S
C104        C516   1.496       .  S
C107        N125   1.352       .  A
C107        C144   1.468       .  S
C107        C309   1.495       .  S
N108        N125   1.326       .  A
N108        N130   1.322       .  A
N108       Co145   2.090   1_654  S
C109        N134   1.340       .  A
C109        C147   1.464       .  S
C109        H154   1.081       .  S
H110        C151   1.082       .  S
C111        N135   1.347       .  A
C111        C115   1.473       .  S
C111        H140   1.080       .  S
Co112       N130   2.100   1_455  S
Co112       N120   2.096   1_455  S
Co112       N152   2.096       .  S
Co112       N128   2.104       .  S
Co112      Cl156   2.466   1_554  S
N113        C151   1.340       .  A
N113        N120   1.321       .  A
N113       Co114   2.085   1_654  S
Co114       N134   2.083   1_556  S
Co114       N892   2.073   1_455  S
Co114       N896   2.096       .  S
Co114      Cl156   2.444       .  S
C115        N153   1.350       .  A
C115        C357   1.495       .  S
N116        N123   1.323       .  A
N116        N146   1.325       .  A
N116       Co149   2.090   1_655  S
N117        N135   1.320       .  A
N117        N153   1.321       .  A
N117       Co889   2.080       .  S
N118        C147   1.356       .  A
N118        N128   1.328       .  A
H119        C144   1.080       .  S
N120        N141   1.327       .  A
N121        N139   1.322       .  A
N121        N126   1.328       .  A
N121       Co889   2.108   1_455  S
C122        N126   1.354       .  A
C122        C150   1.457       .  S
C122        C237   1.482       .  S
N123        C138   1.346       .  A
N123       Co920   2.106   1_655  S
C124        N152   1.343       .  A
C124        C127   1.467       .  S
C124        H158   1.081       .  S
C127        N148   1.353       .  A
C127        C285   1.492       .  S
N128        N134   1.320       .  A
N129        C155   1.343       .  A
N129        N131   1.321       .  A
N129       Co920   2.090       .  S
N130        C144   1.343       .  A
N131        N159   1.327       .  A
N131       Co149   2.097       .  S
H132        C155   1.082       .  S
H133        C150   1.082       .  S
N135       Co149   2.100   1_655  S
N136        N148   1.326       .  A
N136        N152   1.322       .  A
N136       Co145   2.097   1_554  S
C137        N141   1.355       .  A
C137        C151   1.459       .  S
C137        C381   1.484       .  S
C138        C157   1.465       .  S
C138        H142   1.082       .  S
N139        C150   1.341       .  A
N139       Co149   2.084       .  S
C143        N159   1.353       .  A
C143        C155   1.461       .  S
C143        C252   1.484       .  S
Co145       N898   2.106   1_455  S
Co145       N904   2.086       .  S
Co145      Cl156   2.453       .  S
N146        C157   1.350       .  A
C147        C213   1.497       .  S
Co149      Cl931   2.467       .  S
Cl156      Co924   2.465       .  S
C157        C324   1.488       .  S
C160        H161   1.111       .  S
C160        C166   1.540       .  S
C160        C165   1.544       .  S
C160        C164   1.533       .  S
C162        H163   1.108       .  S
C162        C168   1.547       .  S
C162        C167   1.544       .  S
C162        C169   1.543       .  S
C164        C167   1.372       .  D
C164        C765   1.478       .  S
C165        C168   1.387       .  D
C165        C276   1.511       .  S
C166        C169   1.380       .  D
C166        C453   1.497       .  S
C167        C732   1.493       .  S
C168        C261   1.498       .  S
C169        C477   1.511       .  S
C170        H171   1.106       .  S
C170        C176   1.550       .  S
C170        C175   1.551       .  S
C170        C174   1.547       .  S
C172        H173   1.110       .  S
C172        C178   1.545       .  S
C172        C177   1.536       .  S
C172        C179   1.549       .  S
C174        C177   1.377       .  D
C174        C708   1.500       .  S
C175        C178   1.383       .  D
C175        C429   1.498       .  S
C176        C179   1.383       .  D
C176        C300   1.521       .  S
C177        C693   1.490       .  S
C178        C405   1.513       .  S
C179        C333   1.504       .  S
C180        H181   1.107       .  S
C180        C186   1.548       .  S
C180        C185   1.545       .  S
C180        C184   1.539       .  S
C182        H183   1.108       .  S
C182        C188   1.549       .  S
C182        C187   1.540       .  S
C182        C189   1.547       .  S
C184        C187   1.377       .  D
C184        C621   1.485       .  S
C185        C188   1.384       .  D
C185        C573   1.506       .  S
C186        C189   1.385       .  D
C186        C204   1.522       .  S
C187        C597   1.494       .  S
C188        C549   1.513       .  S
C189        C228   1.506       .  S
C190        H191   1.111       .  S
C190        C196   1.554       .  S
C190        C195   1.546       .  S
C190        C194   1.532       .  S
C192        H193   1.096       .  S
C192        C198   1.553       .  S
C192        C197   1.544       .  S
C192        C199   1.531       .  S
C194        C197   1.374       .  D
C194        C669   1.492       .  S
C195        C198   1.390       .  D
C195        C372   1.509       .  S
C196        C199   1.380       .  D
C196        C501   1.496       .  S
C197        C636   1.481       .  S
C198        C348   1.529       .  S
C199        C525   1.507       .  S
C200        H210   1.083       .  S
C200        C201   1.393       .  A
C200        C205   1.400       .  A
C201        C206   1.489       .  S
C201        C202   1.412       .  A
C202        C203   1.409       .  A
C202        S207   1.803       .  S
C203        H208   1.083       .  S
C203        C204   1.414       .  A
C204        C205   1.428       .  A
C205        S209   1.799       .  S
C206        C211   1.407       .  A
C206        C215   1.404       .  A
S207        H223   1.405       .  S
S209        H220   1.407       .  S
C211        C212   1.407       .  A
C211        S216   1.806       .  S
C212        H217   1.081       .  S
C212        C213   1.411       .  A
C213        C214   1.417       .  A
C214        C215   1.404       .  A
C214        S218   1.801       .  S
C215        H219   1.084       .  S
S216        H221   1.406       .  S
S218        H222   1.407       .  S
C224        H234   1.084       .  S
C224        C225   1.406       .  A
C224        C229   1.406       .  A
C225        C230   1.498       .  S
C225        C226   1.415       .  A
C226        C227   1.403       .  A
C226        S231   1.804       .  S
C227        H232   1.082       .  S
C227        C228   1.410       .  A
C228        C229   1.415       .  A
C229        S233   1.803       .  S
C230        C235   1.417       .  A
C230        C239   1.406       .  A
S231        H247   1.406       .  S
S233        H244   1.407       .  S
C235        C236   1.406       .  A
C235        S240   1.805       .  S
C236        H241   1.083       .  S
C236        C237   1.400       .  A
C237        C238   1.412       .  A
C238        C239   1.409       .  A
C238        S242   1.807       .  S
C239        H243   1.083       .  S
S240        H245   1.406       .  S
S242        H246   1.407       .  S
C248        H258   1.084       .  S
C248        C249   1.405       .  A
C248        C253   1.405       .  A
C249        C254   1.493       .  S
C249        C250   1.415       .  A
C250        C251   1.404       .  A
C250        S255   1.805       .  S
C251        H256   1.084       .  S
C251        C252   1.405       .  A
C252        C253   1.414       .  A
C253        S257   1.803       .  S
C254        C259   1.411       .  A
C254        C263   1.405       .  A
S255        H271   1.406       .  S
S257        H268   1.406       .  S
C259        C260   1.404       .  A
C259        S264   1.807       .  S
C260        H265   1.077       .  S
C260        C261   1.405       .  A
C261        C262   1.415       .  A
C262        C263   1.405       .  A
C262        S266   1.805       .  S
C263        H267   1.084       .  S
S264        H269   1.407       .  S
S266        H270   1.406       .  S
C272        H282   1.083       .  S
C272        C273   1.409       .  A
C272        C277   1.411       .  A
C273        C278   1.494       .  S
C273        C274   1.410       .  A
C274        C275   1.393       .  A
C274        S279   1.806       .  S
C275        H280   1.075       .  S
C275        C276   1.409       .  A
C276        C277   1.417       .  A
C277        S281   1.802       .  S
C278        C283   1.411       .  A
C278        C287   1.406       .  A
S279        H295   1.406       .  S
S281        H292   1.407       .  S
C283        C284   1.408       .  A
C283        S288   1.807       .  S
C284        H289   1.082       .  S
C284        C285   1.409       .  A
C285        C286   1.415       .  A
C286        C287   1.402       .  A
C286        S290   1.802       .  S
C287        H291   1.084       .  S
S288        H293   1.406       .  S
S290        H294   1.407       .  S
C296        H306   1.083       .  S
C296        C297   1.395       .  A
C296        C301   1.400       .  A
C297        C302   1.496       .  S
C297        C298   1.414       .  A
C298        C299   1.411       .  A
C298        S303   1.802       .  S
C299        H304   1.083       .  S
C299        C300   1.413       .  A
C300        C301   1.425       .  A
C301        S305   1.794       .  S
C302        C307   1.414       .  A
C302        C311   1.403       .  A
S303        H319   1.406       .  S
S305        H316   1.407       .  S
C307        C308   1.407       .  A
C307        S312   1.807       .  S
C308        H313   1.083       .  S
C308        C309   1.406       .  A
C309        C310   1.420       .  A
C310        C311   1.404       .  A
C310        S314   1.800       .  S
C311        H315   1.084       .  S
S312        H317   1.407       .  S
S314        H318   1.408       .  S
C320        H330   1.084       .  S
C320        C321   1.406       .  A
C320        C325   1.405       .  A
C321        C326   1.500       .  S
C321        C322   1.419       .  A
C322        C323   1.405       .  A
C322        S327   1.803       .  S
C323        H328   1.084       .  S
C323        C324   1.402       .  A
C324        C325   1.416       .  A
C325        S329   1.804       .  S
C326        C331   1.415       .  A
C326        C335   1.405       .  A
S327        H343   1.400       .  S
S329        H340   1.408       .  S
C331        C332   1.408       .  A
C331        S336   1.807       .  S
C332        H337   1.081       .  S
C332        C333   1.408       .  A
C333        C334   1.414       .  A
C334        C335   1.405       .  A
C334        S338   1.802       .  S
C335        H339   1.083       .  S
S336        H341   1.407       .  S
S338        H342   1.406       .  S
C344        H354   1.084       .  S
C344        C345   1.401       .  A
C344        C349   1.400       .  A
C345        C350   1.486       .  S
C345        C346   1.410       .  A
C346        C347   1.404       .  A
C346        S351   1.802       .  S
C347        H352   1.077       .  S
C347        C348   1.412       .  A
C348        C349   1.421       .  A
C349        S353   1.805       .  S
C350        C355   1.406       .  A
C350        C359   1.404       .  A
S351        H367   1.406       .  S
S353        H364   1.408       .  S
C355        C356   1.402       .  A
C355        S360   1.808       .  S
C356        H361   1.082       .  S
C356        C357   1.410       .  A
C357        C358   1.418       .  A
C358        C359   1.406       .  A
C358        S362   1.800       .  S
C359        H363   1.084       .  S
S360        H365   1.406       .  S
S362        H366   1.407       .  S
C368        H378   1.084       .  S
C368        C369   1.396       .  A
C368        C373   1.396       .  A
C369        C374   1.492       .  S
C369        C370   1.414       .  A
C370        C371   1.407       .  A
C370        S375   1.802       .  S
C371        H376   1.084       .  S
C371        C372   1.408       .  A
C372        C373   1.431       .  A
C373        S377   1.803       .  S
C374        C379   1.414       .  A
C374        C383   1.404       .  A
S375        H391   1.406       .  S
S377        H388   1.379       .  S
C379        C380   1.405       .  A
C379        S384   1.807       .  S
C380        H385   1.082       .  S
C380        C381   1.404       .  A
C381        C382   1.415       .  A
C382        C383   1.403       .  A
C382        S386   1.803       .  S
C383        H387   1.083       .  S
S384        H389   1.406       .  S
S386        H390   1.406       .  S
C392        H402   1.084       .  S
C392        C393   1.402       .  A
C392        C397   1.405       .  A
C393        C398   1.496       .  S
C393        C394   1.416       .  A
C394        C395   1.406       .  A
C394        S399   1.802       .  S
C395        H400   1.083       .  S
C395        C396   1.406       .  A
C396        C397   1.421       .  A
C397        S401   1.802       .  S
C398        C403   1.408       .  A
C398        C407   1.406       .  A
S399        H415   1.406       .  S
S401        H412   1.408       .  S
C403        C404   1.403       .  A
C403        S408   1.807       .  S
C404        H409   1.078       .  S
C404        C405   1.411       .  A
C405        C406   1.420       .  A
C406        C407   1.410       .  A
C406        S410   1.802       .  S
C407        H411   1.083       .  S
S408        H413   1.406       .  S
S410        H414   1.404       .  S
C416        H426   1.084       .  S
C416        C417   1.406       .  A
C416        C421   1.406       .  A
C417        C422   1.496       .  S
C417        C418   1.415       .  A
C418        C419   1.402       .  A
C418        S423   1.805       .  S
C419        H424   1.084       .  S
C419        C420   1.405       .  A
C420        C421   1.416       .  A
C421        S425   1.803       .  S
C422        C427   1.413       .  A
C422        C431   1.402       .  A
S423        H439   1.407       .  S
S425        H436   1.406       .  S
C427        C428   1.409       .  A
C427        S432   1.805       .  S
C428        H433   1.083       .  S
C428        C429   1.405       .  A
C429        C430   1.417       .  A
C430        C431   1.403       .  A
C430        S434   1.804       .  S
C431        H435   1.083       .  S
S432        H437   1.407       .  S
S434        H438   1.406       .  S
C440        H450   1.084       .  S
C440        C441   1.403       .  A
C440        C445   1.403       .  A
C441        C446   1.488       .  S
C441        C442   1.415       .  A
C442        C443   1.403       .  A
C442        S447   1.805       .  S
C443        H448   1.084       .  S
C443        C444   1.403       .  A
C444        C445   1.416       .  A
C445        S449   1.803       .  S
C446        C451   1.411       .  A
C446        C455   1.399       .  A
S447        H463   1.406       .  S
S449        H460   1.408       .  S
C451        C452   1.408       .  A
C451        S456   1.805       .  S
C452        H457   1.083       .  S
C452        C453   1.405       .  A
C453        C454   1.416       .  A
C454        C455   1.402       .  A
C454        S458   1.800       .  S
C455        H459   1.083       .  S
S456        H461   1.407       .  S
S458        H462   1.406       .  S
C464        H474   1.084       .  S
C464        C465   1.403       .  A
C464        C469   1.401       .  A
C465        C470   1.486       .  S
C465        C466   1.413       .  A
C466        C467   1.403       .  A
C466        S471   1.806       .  S
C467        H472   1.082       .  S
C467        C468   1.409       .  A
C468        C469   1.418       .  A
C469        S473   1.802       .  S
C470        C475   1.409       .  A
C470        C479   1.393       .  A
S471        H487   1.404       .  S
S473        H484   1.408       .  S
C475        C476   1.410       .  A
C475        S480   1.804       .  S
C476        H481   1.082       .  S
C476        C477   1.411       .  A
C477        C478   1.425       .  A
C478        C479   1.397       .  A
C478        S482   1.799       .  S
C479        H483   1.084       .  S
S480        H485   1.407       .  S
S482        H486   1.405       .  S
C488        H498   1.084       .  S
C488        C489   1.405       .  A
C488        C493   1.405       .  A
C489        C494   1.489       .  S
C489        C490   1.415       .  A
C490        C491   1.400       .  A
C490        S495   1.806       .  S
C491        H496   1.084       .  S
C491        C492   1.404       .  A
C492        C493   1.414       .  A
C493        S497   1.804       .  S
C494        C499   1.409       .  A
C494        C503   1.406       .  A
S495        H511   1.406       .  S
S497        H508   1.406       .  S
C499        C500   1.399       .  A
C499        S504   1.808       .  S
C500        H505   1.077       .  S
C500        C501   1.406       .  A
C501        C502   1.414       .  A
C502        C503   1.407       .  A
C502        S506   1.804       .  S
C503        H507   1.083       .  S
S504        H509   1.406       .  S
S506        H510   1.405       .  S
C512        H522   1.084       .  S
C512        C513   1.406       .  A
C512        C517   1.403       .  A
C513        C518   1.495       .  S
C513        C514   1.413       .  A
C514        C515   1.405       .  A
C514        S519   1.804       .  S
C515        H520   1.082       .  S
C515        C516   1.410       .  A
C516        C517   1.416       .  A
C517        S521   1.802       .  S
C518        C523   1.408       .  A
C518        C527   1.410       .  A
S519        H535   1.406       .  S
S521        H532   1.408       .  S
C523        C524   1.396       .  A
C523        S528   1.807       .  S
C524        H529   1.076       .  S
C524        C525   1.405       .  A
C525        C526   1.414       .  A
C526        C527   1.415       .  A
C526        S530   1.804       .  S
C527        H531   1.082       .  S
S528        H533   1.406       .  S
S530        H534   1.407       .  S
C536        H546   1.084       .  S
C536        C537   1.404       .  A
C536        C541   1.403       .  A
C537        C542   1.497       .  S
C537        C538   1.416       .  A
C538        C539   1.407       .  A
C538        S543   1.804       .  S
C539        H544   1.082       .  S
C539        C540   1.408       .  A
C540        C541   1.419       .  A
C541        S545   1.802       .  S
C542        C547   1.408       .  A
C542        C551   1.409       .  A
S543        H559   1.401       .  S
S545        H556   1.407       .  S
C547        C548   1.398       .  A
C547        S552   1.806       .  S
C548        H553   1.077       .  S
C548        C549   1.409       .  A
C549        C550   1.419       .  A
C550        C551   1.413       .  A
C550        S554   1.802       .  S
C551        H555   1.083       .  S
S552        H557   1.407       .  S
S554        H558   1.406       .  S
C560        H570   1.083       .  S
C560        C561   1.406       .  A
C560        C565   1.410       .  A
C561        C566   1.496       .  S
C561        C562   1.415       .  A
C562        C563   1.404       .  A
C562        S567   1.804       .  S
C563        H568   1.084       .  S
C563        C564   1.405       .  A
C564        C565   1.414       .  A
C565        S569   1.806       .  S
C566        C571   1.412       .  A
C566        C575   1.399       .  A
S567        H583   1.406       .  S
S569        H580   1.407       .  S
C571        C572   1.411       .  A
C571        S576   1.805       .  S
C572        H577   1.083       .  S
C572        C573   1.407       .  A
C573        C574   1.421       .  A
C574        C575   1.404       .  A
C574        S578   1.801       .  S
C575        H579   1.083       .  S
S576        H581   1.407       .  S
S578        H582   1.406       .  S
C584        H594   1.084       .  S
C584        C585   1.402       .  A
C584        C589   1.395       .  A
C585        C590   1.462       .  S
C585        C586   1.406       .  A
C586        C587   1.387       .  A
C586        S591   1.801       .  S
C587        H592   1.084       .  S
C587        C588   1.399       .  A
C588        C589   1.409       .  A
C589        S593   1.806       .  S
C590        C595   1.400       .  A
C590        C599   1.395       .  A
S591        H607   1.405       .  S
S593        H604   1.403       .  S
C595        C596   1.393       .  A
C595        S600   1.806       .  S
C596        H601   1.075       .  S
C596        C597   1.408       .  A
C597        C598   1.416       .  A
C598        C599   1.396       .  A
C598        S602   1.796       .  S
C599        H603   1.083       .  S
S600        H605   1.407       .  S
S602        H606   1.406       .  S
C608        H618   1.084       .  S
C608        C609   1.401       .  A
C608        C613   1.392       .  A
C609        C614   1.469       .  S
C609        C610   1.410       .  A
C610        C611   1.399       .  A
C610        S615   1.803       .  S
C611        H616   1.084       .  S
C611        C612   1.401       .  A
C612        C613   1.409       .  A
C613        S617   1.804       .  S
C614        C619   1.403       .  A
C614        C623   1.401       .  A
S615        H631   1.406       .  S
S617        H628   1.406       .  S
C619        C620   1.394       .  A
C619        S624   1.807       .  S
C620        H625   1.076       .  S
C620        C621   1.403       .  A
C621        C622   1.416       .  A
C622        C623   1.397       .  A
C622        S626   1.805       .  S
C623        H627   1.084       .  S
S624        H629   1.407       .  S
S626        H630   1.403       .  S
C632        H642   1.083       .  S
C632        C633   1.400       .  A
C632        C637   1.398       .  A
C633        C638   1.465       .  S
C633        C634   1.406       .  A
C634        C635   1.391       .  A
C634        S639   1.804       .  S
C635        H640   1.083       .  S
C635        C636   1.405       .  A
C636        C637   1.414       .  A
C637        S641   1.804       .  S
C638        C643   1.404       .  A
C638        C647   1.401       .  A
S639        H655   1.405       .  S
S641        H652   1.406       .  S
C643        C644   1.391       .  A
C643        S648   1.807       .  S
C644        H649   1.082       .  S
C644        C645   1.403       .  A
C645        C646   1.412       .  A
C646        C647   1.398       .  A
C646        S650   1.802       .  S
C647        H651   1.084       .  S
S648        H653   1.407       .  S
S650        H654   1.406       .  S
C656        H666   1.084       .  S
C656        C657   1.398       .  A
C656        C661   1.393       .  A
C657        C662   1.461       .  S
C657        C658   1.409       .  A
C658        C659   1.392       .  A
C658        S663   1.804       .  S
C659        H664   1.084       .  S
C659        C660   1.401       .  A
C660        C661   1.413       .  A
C661        S665   1.805       .  S
C662        C667   1.400       .  A
C662        C671   1.393       .  A
S663        H679   1.406       .  S
S665        H676   1.407       .  S
C667        C668   1.395       .  A
C667        S672   1.807       .  S
C668        H673   1.079       .  S
C668        C669   1.409       .  A
C669        C670   1.420       .  A
C670        C671   1.395       .  A
C670        S674   1.799       .  S
C671        H675   1.083       .  S
S672        H677   1.407       .  S
S674        H678   1.406       .  S
C680        H690   1.084       .  S
C680        C681   1.401       .  A
C680        C685   1.396       .  A
C681        C686   1.467       .  S
C681        C682   1.409       .  A
C682        C683   1.393       .  A
C682        S687   1.802       .  S
C683        H688   1.084       .  S
C683        C684   1.400       .  A
C684        C685   1.410       .  A
C685        S689   1.803       .  S
C686        C691   1.403       .  A
C686        C695   1.396       .  A
S687        H703   1.404       .  S
S689        H700   1.406       .  S
C691        C692   1.399       .  A
C691        S696   1.805       .  S
C692        H697   1.077       .  S
C692        C693   1.406       .  A
C693        C694   1.411       .  A
C694        C695   1.397       .  A
C694        S698   1.795       .  S
C695        H699   1.083       .  S
S696        H701   1.407       .  S
S698        H702   1.406       .  S
C704        H714   1.083       .  S
C704        C705   1.396       .  A
C704        C709   1.400       .  A
C705        C710   1.468       .  S
C705        C706   1.405       .  A
C706        C707   1.393       .  A
C706        S711   1.804       .  S
C707        H712   1.082       .  S
C707        C708   1.411       .  A
C708        C709   1.420       .  A
C709        S713   1.800       .  S
C710        C715   1.407       .  A
C710        C719   1.400       .  A
S711        H727   1.405       .  S
S713        H724   1.406       .  S
C715        C716   1.396       .  A
C715        S720   1.807       .  S
C716        H721   1.082       .  S
C716        C717   1.403       .  A
C717        C718   1.414       .  A
C718        C719   1.398       .  A
C718        S722   1.803       .  S
C719        H723   1.084       .  S
S720        H725   1.407       .  S
S722        H726   1.407       .  S
C728        H738   1.083       .  S
C728        C729   1.395       .  A
C728        C733   1.396       .  A
C729        C734   1.471       .  S
C729        C730   1.408       .  A
C730        C731   1.398       .  A
C730        S735   1.803       .  S
C731        H736   1.083       .  S
C731        C732   1.407       .  A
C732        C733   1.419       .  A
C733        S737   1.802       .  S
C734        C739   1.409       .  A
C734        C743   1.398       .  A
S735        H751   1.404       .  S
S737        H748   1.406       .  S
C739        C740   1.399       .  A
C739        S744   1.805       .  S
C740        H745   1.083       .  S
C740        C741   1.401       .  A
C741        C742   1.415       .  A
C742        C743   1.397       .  A
C742        S746   1.801       .  S
C743        H747   1.084       .  S
S744        H749   1.407       .  S
S746        H750   1.407       .  S
C752        H762   1.083       .  S
C752        C753   1.403       .  A
C752        C757   1.398       .  A
C753        C758   1.465       .  S
C753        C754   1.410       .  A
C754        C755   1.392       .  A
C754        S759   1.806       .  S
C755        H760   1.084       .  S
C755        C756   1.400       .  A
C756        C757   1.404       .  A
C757        S761   1.806       .  S
C758        C763   1.407       .  A
C758        C767   1.396       .  A
S759        H775   1.404       .  S
S761        H772   1.407       .  S
C763        C764   1.399       .  A
C763        S768   1.806       .  S
C764        H769   1.083       .  S
C764        C765   1.403       .  A
C765        C766   1.414       .  A
C766        C767   1.394       .  A
C766        S770   1.804       .  S
C767        H771   1.083       .  S
S768        H773   1.407       .  S
S770        H774   1.406       .  S
C776        N794   1.346       .  A
C776        C813   1.456       .  S
C776       C1531   1.454       .  S
N777        N794   1.321       .  A
N777        N799   1.318       .  A
N777       Co814   2.067       .  S
C778        N803   1.338       .  A
C778        C816   1.456       .  S
C778        H823   1.081       .  S
H779        C820   1.081       .  S
C780        N804   1.335       .  A
C780        C784   1.454       .  S
C780        H809   1.081       .  S
Co781       N799   2.072       .  S
Co781       N789   2.080       .  S
Co781      Cl825   2.441       .  S
N782        C820   1.338       .  A
N782        N789   1.318       .  A
Co783       N803   2.079       .  S
Co783       N790   2.081       .  S
C784        N822   1.349       .  A
C784       C1435   1.463       .  S
N785        N792   1.318       .  A
N785        N815   1.325       .  A
N786        N804   1.318       .  A
N786        N822   1.322       .  A
N787        C816   1.346       .  A
N787        N797   1.323       .  A
H788        C813   1.082       .  S
N789        N810   1.323       .  A
N790        N808   1.316       .  A
N790        N795   1.325       .  A
C791        N795   1.352       .  A
C791        C819   1.453       .  S
C791       C1420   1.464       .  S
N792        C807   1.334       .  A
N792       Co814   2.065       .  S
C793        N821   1.341       .  A
C793        C796   1.463       .  S
C793        H827   1.081       .  S
C796        N817   1.344       .  A
C796       C1516   1.470       .  S
N797        N803   1.320       .  A
N798        C824   1.337       .  A
N798        N800   1.316       .  A
N799        C813   1.336       .  A
N800        N828   1.315       .  A
N800       Co818   2.044       .  S
H801        C824   1.081       .  S
H802        C819   1.081       .  S
N805        N817   1.321       .  A
N805        N821   1.319       .  A
C806        N810   1.350       .  A
C806        C820   1.458       .  S
C806       C1492   1.475       .  S
C807        C826   1.453       .  S
C807        H811   1.082       .  S
N808        C819   1.335       .  A
N808       Co818   2.068       .  S
C812        N828   1.341       .  A
C812        C824   1.457       .  S
C812       C1363   1.440       .  S
Co814      Cl825   2.439       .  S
N815        C826   1.348       .  A
C816       C1459   1.463       .  S
C826       C1387   1.462       .  S
C829        N847   1.351       .  A
C829        C866   1.466       .  S
C829       C1267   1.486       .  S
N830        N847   1.327       .  A
N830        N852   1.322       .  A
N830       Co867   2.096       .  S
C831        N856   1.345       .  A
C831        C869   1.465       .  S
C831        H876   1.081       .  S
H832        C873   1.081       .  S
C833        N857   1.346       .  A
C833        C837   1.471       .  S
C833        H862   1.081       .  S
Co834       N852   2.104       .  S
Co834       N842   2.090       .  S
Co834       N874   2.084   1_565  S
Co834       N850   2.096   1_565  S
Co834      Cl878   2.467       .  S
N835        C873   1.340       .  A
N835        N842   1.321       .  A
N835       Co836   2.086       .  S
Co836       N856   2.098   1_565  S
Co836      Cl878   2.448       .  S
C837        N875   1.349       .  A
C837       C1315   1.495       .  S
N838        N845   1.319       .  A
N838        N868   1.328       .  A
N838       Co871   2.101       .  S
N839        N857   1.321       .  A
N839        N875   1.323       .  A
N840        C869   1.352       .  A
N840        N850   1.327       .  A
H841        C866   1.081       .  S
N842        N863   1.326       .  A
N843        N861   1.321       .  A
N843        N848   1.324       .  A
C844        N848   1.351       .  A
C844        C872   1.468       .  S
C844       C1243   1.491       .  S
N845        C860   1.339       .  A
C846        N874   1.340       .  A
C846        C849   1.460       .  S
C846        H880   1.082       .  S
C849        N870   1.353       .  A
C849       C1195   1.484       .  S
N850        N856   1.321       .  A
N851        C877   1.341       .  A
N851        N853   1.320       .  A
N852        C866   1.346       .  A
N853        N881   1.327       .  A
N853       Co871   2.097   1_545  S
H854        C877   1.080       .  S
H855        C872   1.081       .  S
N857       Co871   2.101       .  S
N858        N870   1.327       .  A
N858        N874   1.321       .  A
N858       Co867   2.096   1_545  S
C859        N863   1.353       .  A
C859        C873   1.460       .  S
C859       C1339   1.481       .  S
C860        C879   1.467       .  S
C860        H864   1.080       .  S
N861        C872   1.343       .  A
N861       Co871   2.093   1_545  S
C865        N881   1.354       .  A
C865        C877   1.466       .  S
C865       C1171   1.494       .  S
Co867      Cl878   2.449       .  S
N868        C879   1.357       .  A
C869       C1219   1.493       .  S
C879       C1291   1.502       .  S
C882        N900   1.352       .  A
C882        C919   1.469       .  S
C882       C1084   1.497       .  S
N883        N900   1.326       .  A
N883        N905   1.322       .  A
N883       Co920   2.093   1_655  S
C884        N909   1.343       .  A
C884        C922   1.465       .  S
C884        H929   1.082       .  S
H885        C926   1.082       .  S
C886        N910   1.346       .  A
C886        C890   1.469       .  S
C886        H915   1.081       .  S
Co887       N905   2.102   1_455  S
Co887       N895   2.097   1_455  S
Co887       N927   2.095       .  S
Co887       N903   2.103       .  S
Co887      Cl931   2.466       .  S
N888        C926   1.342       .  A
N888        N895   1.322       .  A
N888       Co889   2.092       .  S
Co889       N909   2.092   1_655  S
Co889      Cl931   2.451   1_655  S
C890        N928   1.347       .  A
C890       C1132   1.484       .  S
N891        N898   1.323       .  A
N891        N921   1.325       .  A
N891       Co924   2.089   1_655  S
N892        N910   1.320       .  A
N892        N928   1.321       .  A
N893        C922   1.355       .  A
N893        N903   1.328       .  A
H894        C919   1.080       .  S
N895        N916   1.326       .  A
N896        N914   1.322       .  A
N896        N901   1.327       .  A
C897        N901   1.352       .  A
C897        C925   1.460       .  S
C897       C1012   1.482       .  S
N898        C913   1.346       .  A
C899        N927   1.343       .  A
C899        C902   1.467       .  S
C899        H933   1.081       .  S
C902        N923   1.352       .  A
C902       C1060   1.490       .  S
N903        N909   1.322       .  A
N904        C930   1.341       .  A
N904        N906   1.321       .  A
N905        C919   1.344       .  A
N906        N934   1.326       .  A
N906       Co924   2.095       .  S
H907        C930   1.081       .  S
H908        C925   1.081       .  S
N910       Co924   2.099   1_655  S
N911        N923   1.325       .  A
N911        N927   1.322       .  A
N911       Co920   2.094       .  S
C912        N916   1.353       .  A
C912        C926   1.461       .  S
C912       C1156   1.485       .  S
C913        C932   1.466       .  S
C913        H917   1.082       .  S
N914        C925   1.343       .  A
N914       Co924   2.090       .  S
C918        N934   1.352       .  A
C918        C930   1.459       .  S
C918       C1027   1.479       .  S
Co920      Cl931   2.454       .  S
N921        C932   1.350       .  A
C922        C988   1.497       .  S
C932       C1099   1.490       .  S
C935        H936   1.111       .  S
C935        C941   1.540       .  S
C935        C940   1.547       .  S
C935        C939   1.535       .  S
C937        H938   1.109       .  S
C937        C943   1.546       .  S
C937        C942   1.543       .  S
C937        C944   1.543       .  S
C939        C942   1.372       .  D
C939       C1540   1.476       .  S
C940        C943   1.388       .  D
C940       C1051   1.516       .  S
C941        C944   1.377       .  D
C941       C1228   1.499       .  S
C942       C1507   1.494       .  S
C943       C1036   1.493       .  S
C944       C1252   1.509       .  S
C945        H946   1.106       .  S
C945        C951   1.548       .  S
C945        C950   1.551       .  S
C945        C949   1.546       .  S
C947        H948   1.110       .  S
C947        C953   1.542       .  S
C947        C952   1.536       .  S
C947        C954   1.546       .  S
C949        C952   1.375       .  D
C949       C1483   1.495       .  S
C950        C953   1.382       .  D
C950       C1204   1.497       .  S
C951        C954   1.383       .  D
C951       C1075   1.520       .  S
C952       C1468   1.493       .  S
C953       C1180   1.508       .  S
C954       C1108   1.499       .  S
C955        H956   1.107       .  S
C955        C961   1.552       .  S
C955        C960   1.546       .  S
C955        C959   1.536       .  S
C957        H958   1.108       .  S
C957        C963   1.546       .  S
C957        C962   1.537       .  S
C957        C964   1.547       .  S
C959        C962   1.373       .  D
C959       C1396   1.481       .  S
C960        C963   1.382       .  D
C960       C1348   1.504       .  S
C961        C964   1.389       .  D
C961        C979   1.527       .  S
C962       C1372   1.486       .  S
C963       C1324   1.511       .  S
C964       C1003   1.508       .  S
C965        H966   1.111       .  S
C965        C971   1.557       .  S
C965        C970   1.550       .  S
C965        C969   1.527       .  S
C967        H968   1.095       .  S
C967        C973   1.555       .  S
C967        C972   1.543       .  S
C967        C974   1.533       .  S
C969        C972   1.371       .  D
C969       C1444   1.485       .  S
C970        C973   1.391       .  D
C970       C1147   1.515       .  S
C971        C974   1.384       .  D
C971       C1276   1.510       .  S
C972       C1411   1.484       .  S
C973       C1123   1.530       .  S
C974       C1300   1.504       .  S
C975        H985   1.084       .  S
C975        C976   1.395       .  A
C975        C980   1.402       .  A
C976        C981   1.496       .  S
C976        C977   1.414       .  A
C977        C978   1.411       .  A
C977        S982   1.803       .  S
C978        H983   1.083       .  S
C978        C979   1.414       .  A
C979        C980   1.430       .  A
C980        S984   1.799       .  S
C981        C986   1.411       .  A
C981        C990   1.406       .  A
S982        H998   1.405       .  S
S984        H995   1.408       .  S
C986        C987   1.410       .  A
C986        S991   1.806       .  S
C987        H992   1.082       .  S
C987        C988   1.410       .  A
C988        C989   1.416       .  A
C989        C990   1.405       .  A
C989        S993   1.802       .  S
C990        H994   1.084       .  S
S991        H996   1.406       .  S
S993        H997   1.407       .  S
C999       H1009   1.084       .  S
C999       C1000   1.405       .  A
C999       C1004   1.407       .  A
C1000      C1005   1.498       .  S
C1000      C1001   1.414       .  A
C1001      C1002   1.403       .  A
C1001      S1006   1.803       .  S
C1002      H1007   1.081       .  S
C1002      C1003   1.410       .  A
C1003      C1004   1.418       .  A
C1004      S1008   1.804       .  S
C1005      C1010   1.417       .  A
C1005      C1014   1.406       .  A
S1006      H1022   1.406       .  S
S1008      H1019   1.406       .  S
C1010      C1011   1.405       .  A
C1010      S1015   1.804       .  S
C1011      H1016   1.083       .  S
C1011      C1012   1.399       .  A
C1012      C1013   1.413       .  A
C1013      C1014   1.409       .  A
C1013      S1017   1.807       .  S
C1014      H1018   1.083       .  S
S1015      H1020   1.407       .  S
S1017      H1021   1.407       .  S
C1023      H1033   1.084       .  S
C1023      C1024   1.404       .  A
C1023      C1028   1.402       .  A
C1024      C1029   1.487       .  S
C1024      C1025   1.414       .  A
C1025      C1026   1.402       .  A
C1025      S1030   1.805       .  S
C1026      H1031   1.084       .  S
C1026      C1027   1.404       .  A
C1027      C1028   1.413       .  A
C1028      S1032   1.803       .  S
C1029      C1034   1.410       .  A
C1029      C1038   1.404       .  A
S1030      H1046   1.406       .  S
S1032      H1043   1.406       .  S
C1034      C1035   1.401       .  A
C1034      S1039   1.807       .  S
C1035      H1040   1.075       .  S
C1035      C1036   1.404       .  A
C1036      C1037   1.414       .  A
C1037      C1038   1.403       .  A
C1037      S1041   1.805       .  S
C1038      H1042   1.084       .  S
S1039      H1044   1.407       .  S
S1041      H1045   1.406       .  S
C1047      H1057   1.083       .  S
C1047      C1048   1.408       .  A
C1047      C1052   1.411       .  A
C1048      C1053   1.492       .  S
C1048      C1049   1.407       .  A
C1049      C1050   1.393       .  A
C1049      S1054   1.806       .  S
C1050      H1055   1.075       .  S
C1050      C1051   1.411       .  A
C1051      C1052   1.420       .  A
C1052      S1056   1.802       .  S
C1053      C1058   1.410       .  A
C1053      C1062   1.406       .  A
S1054      H1070   1.407       .  S
S1056      H1067   1.406       .  S
C1058      C1059   1.407       .  A
C1058      S1063   1.806       .  S
C1059      H1064   1.082       .  S
C1059      C1060   1.409       .  A
C1060      C1061   1.415       .  A
C1061      C1062   1.402       .  A
C1061      S1065   1.802       .  S
C1062      H1066   1.084       .  S
S1063      H1068   1.407       .  S
S1065      H1069   1.407       .  S
C1071      H1081   1.084       .  S
C1071      C1072   1.396       .  A
C1071      C1076   1.401       .  A
C1072      C1077   1.496       .  S
C1072      C1073   1.414       .  A
C1073      C1074   1.409       .  A
C1073      S1078   1.802       .  S
C1074      H1079   1.083       .  S
C1074      C1075   1.412       .  A
C1075      C1076   1.426       .  A
C1076      S1080   1.796       .  S
C1077      C1082   1.413       .  A
C1077      C1086   1.403       .  A
S1078      H1094   1.406       .  S
S1080      H1091   1.408       .  S
C1082      C1083   1.407       .  A
C1082      S1087   1.807       .  S
C1083      H1088   1.083       .  S
C1083      C1084   1.406       .  A
C1084      C1085   1.421       .  A
C1085      C1086   1.405       .  A
C1085      S1089   1.800       .  S
C1086      H1090   1.084       .  S
S1087      H1092   1.407       .  S
S1089      H1093   1.408       .  S
C1095      H1105   1.084       .  S
C1095      C1096   1.405       .  A
C1095      C1100   1.404       .  A
C1096      C1101   1.500       .  S
C1096      C1097   1.419       .  A
C1097      C1098   1.404       .  A
C1097      S1102   1.802       .  S
C1098      H1103   1.084       .  S
C1098      C1099   1.402       .  A
C1099      C1100   1.418       .  A
C1100      S1104   1.803       .  S
C1101      C1106   1.415       .  A
C1101      C1110   1.406       .  A
S1102      H1118   1.399       .  S
S1104      H1115   1.408       .  S
C1106      C1107   1.407       .  A
C1106      S1111   1.807       .  S
C1107      H1112   1.083       .  S
C1107      C1108   1.406       .  A
C1108      C1109   1.413       .  A
C1109      C1110   1.405       .  A
C1109      S1113   1.803       .  S
C1110      H1114   1.084       .  S
S1111      H1116   1.407       .  S
S1113      H1117   1.406       .  S
C1119      H1129   1.084       .  S
C1119      C1120   1.398       .  A
C1119      C1124   1.399       .  A
C1120      C1125   1.481       .  S
C1120      C1121   1.411       .  A
C1121      C1122   1.405       .  A
C1121      S1126   1.804       .  S
C1122      H1127   1.078       .  S
C1122      C1123   1.413       .  A
C1123      C1124   1.422       .  A
C1124      S1128   1.804       .  S
C1125      C1130   1.406       .  A
C1125      C1134   1.404       .  A
S1126      H1142   1.403       .  S
S1128      H1139   1.408       .  S
C1130      C1131   1.401       .  A
C1130      S1135   1.806       .  S
C1131      H1136   1.082       .  S
C1131      C1132   1.408       .  A
C1132      C1133   1.413       .  A
C1133      C1134   1.404       .  A
C1133      S1137   1.802       .  S
C1134      H1138   1.084       .  S
S1135      H1140   1.407       .  S
S1137      H1141   1.407       .  S
C1143      H1153   1.085       .  S
C1143      C1144   1.398       .  A
C1143      C1148   1.400       .  A
C1144      C1149   1.494       .  S
C1144      C1145   1.412       .  A
C1145      C1146   1.406       .  A
C1145      S1150   1.802       .  S
C1146      H1151   1.082       .  S
C1146      C1147   1.408       .  A
C1147      C1148   1.434       .  A
C1148      S1152   1.805       .  S
C1149      C1154   1.413       .  A
C1149      C1158   1.405       .  A
S1150      H1166   1.406       .  S
S1152      H1163   1.383       .  S
C1154      C1155   1.406       .  A
C1154      S1159   1.807       .  S
C1155      H1160   1.083       .  S
C1155      C1156   1.405       .  A
C1156      C1157   1.414       .  A
C1157      C1158   1.404       .  A
C1157      S1161   1.803       .  S
C1158      H1162   1.083       .  S
S1159      H1164   1.407       .  S
S1161      H1165   1.406       .  S
C1167      H1177   1.084       .  S
C1167      C1168   1.400       .  A
C1167      C1172   1.403       .  A
C1168      C1173   1.490       .  S
C1168      C1169   1.414       .  A
C1169      C1170   1.403       .  A
C1169      S1174   1.802       .  S
C1170      H1175   1.084       .  S
C1170      C1171   1.406       .  A
C1171      C1172   1.422       .  A
C1172      S1176   1.800       .  S
C1173      C1178   1.407       .  A
C1173      C1182   1.406       .  A
S1174      H1190   1.407       .  S
S1176      H1187   1.408       .  S
C1178      C1179   1.398       .  A
C1178      S1183   1.808       .  S
C1179      H1184   1.078       .  S
C1179      C1180   1.409       .  A
C1180      C1181   1.419       .  A
C1181      C1182   1.409       .  A
C1181      S1185   1.802       .  S
C1182      H1186   1.083       .  S
S1183      H1188   1.406       .  S
S1185      H1189   1.405       .  S
C1191      H1201   1.083       .  S
C1191      C1192   1.406       .  A
C1191      C1196   1.403       .  A
C1192      C1197   1.493       .  S
C1192      C1193   1.415       .  A
C1193      C1194   1.401       .  A
C1193      S1198   1.805       .  S
C1194      H1199   1.084       .  S
C1194      C1195   1.405       .  A
C1195      C1196   1.413       .  A
C1196      S1200   1.803       .  S
C1197      C1202   1.412       .  A
C1197      C1206   1.401       .  A
S1198      H1214   1.406       .  S
S1200      H1211   1.407       .  S
C1202      C1203   1.408       .  A
C1202      S1207   1.805       .  S
C1203      H1208   1.083       .  S
C1203      C1204   1.404       .  A
C1204      C1205   1.417       .  A
C1205      C1206   1.402       .  A
C1205      S1209   1.803       .  S
C1206      H1210   1.083       .  S
S1207      H1212   1.407       .  S
S1209      H1213   1.406       .  S
C1215      H1225   1.084       .  S
C1215      C1216   1.404       .  A
C1215      C1220   1.404       .  A
C1216      C1221   1.494       .  S
C1216      C1217   1.416       .  A
C1217      C1218   1.405       .  A
C1217      S1222   1.805       .  S
C1218      H1223   1.083       .  S
C1218      C1219   1.405       .  A
C1219      C1220   1.418       .  A
C1220      S1224   1.802       .  S
C1221      C1226   1.413       .  A
C1221      C1230   1.400       .  A
S1222      H1238   1.406       .  S
S1224      H1235   1.407       .  S
C1226      C1227   1.410       .  A
C1226      S1231   1.805       .  S
C1227      H1232   1.083       .  S
C1227      C1228   1.405       .  A
C1228      C1229   1.416       .  A
C1229      C1230   1.404       .  A
C1229      S1233   1.799       .  S
C1230      H1234   1.083       .  S
S1231      H1236   1.407       .  S
S1233      H1237   1.406       .  S
C1239      H1249   1.085       .  S
C1239      C1240   1.403       .  A
C1239      C1244   1.400       .  A
C1240      C1245   1.485       .  S
C1240      C1241   1.413       .  A
C1241      C1242   1.403       .  A
C1241      S1246   1.807       .  S
C1242      H1247   1.082       .  S
C1242      C1243   1.409       .  A
C1243      C1244   1.418       .  A
C1244      S1248   1.803       .  S
C1245      C1250   1.409       .  A
C1245      C1254   1.391       .  A
S1246      H1262   1.405       .  S
S1248      H1259   1.407       .  S
C1250      C1251   1.411       .  A
C1250      S1255   1.803       .  S
C1251      H1256   1.082       .  S
C1251      C1252   1.411       .  A
C1252      C1253   1.422       .  A
C1253      C1254   1.396       .  A
C1253      S1257   1.795       .  S
C1254      H1258   1.082       .  S
S1255      H1260   1.407       .  S
S1257      H1261   1.405       .  S
C1263      H1273   1.083       .  S
C1263      C1264   1.407       .  A
C1263      C1268   1.407       .  A
C1264      C1269   1.497       .  S
C1264      C1265   1.415       .  A
C1265      C1266   1.407       .  A
C1265      S1270   1.803       .  S
C1266      H1271   1.084       .  S
C1266      C1267   1.405       .  A
C1267      C1268   1.412       .  A
C1268      S1272   1.803       .  S
C1269      C1274   1.409       .  A
C1269      C1278   1.406       .  A
S1270      H1286   1.406       .  S
S1272      H1283   1.406       .  S
C1274      C1275   1.404       .  A
C1274      S1279   1.805       .  S
C1275      H1280   1.077       .  S
C1275      C1276   1.409       .  A
C1276      C1277   1.417       .  A
C1277      C1278   1.410       .  A
C1277      S1281   1.803       .  S
C1278      H1282   1.083       .  S
S1279      H1284   1.408       .  S
S1281      H1285   1.406       .  S
C1287      H1297   1.084       .  S
C1287      C1288   1.403       .  A
C1287      C1292   1.405       .  A
C1288      C1293   1.488       .  S
C1288      C1289   1.410       .  A
C1289      C1290   1.402       .  A
C1289      S1294   1.805       .  S
C1290      H1295   1.080       .  S
C1290      C1291   1.411       .  A
C1291      C1292   1.420       .  A
C1292      S1296   1.800       .  S
C1293      C1298   1.405       .  A
C1293      C1302   1.408       .  A
S1294      H1310   1.402       .  S
S1296      H1307   1.408       .  S
C1298      C1299   1.397       .  A
C1298      S1303   1.808       .  S
C1299      H1304   1.076       .  S
C1299      C1300   1.408       .  A
C1300      C1301   1.412       .  A
C1301      C1302   1.413       .  A
C1301      S1305   1.804       .  S
C1302      H1306   1.082       .  S
S1303      H1308   1.407       .  S
S1305      H1309   1.407       .  S
C1311      H1321   1.084       .  S
C1311      C1312   1.402       .  A
C1311      C1316   1.400       .  A
C1312      C1317   1.492       .  S
C1312      C1313   1.416       .  A
C1313      C1314   1.407       .  A
C1313      S1318   1.806       .  S
C1314      H1319   1.082       .  S
C1314      C1315   1.408       .  A
C1315      C1316   1.418       .  A
C1316      S1320   1.802       .  S
C1317      C1322   1.408       .  A
C1317      C1326   1.407       .  A
S1318      H1334   1.399       .  S
S1320      H1331   1.407       .  S
C1322      C1323   1.398       .  A
C1322      S1327   1.806       .  S
C1323      H1328   1.078       .  S
C1323      C1324   1.409       .  A
C1324      C1325   1.418       .  A
C1325      C1326   1.411       .  A
C1325      S1329   1.802       .  S
C1326      H1330   1.083       .  S
S1327      H1332   1.406       .  S
S1329      H1333   1.406       .  S
C1335      H1345   1.083       .  S
C1335      C1336   1.404       .  A
C1335      C1340   1.405       .  A
C1336      C1341   1.486       .  S
C1336      C1337   1.414       .  A
C1337      C1338   1.402       .  A
C1337      S1342   1.805       .  S
C1338      H1343   1.084       .  S
C1338      C1339   1.404       .  A
C1339      C1340   1.410       .  A
C1340      S1344   1.806       .  S
C1341      C1346   1.409       .  A
C1341      C1350   1.395       .  A
S1342      H1358   1.406       .  S
S1344      H1355   1.406       .  S
C1346      C1347   1.408       .  A
C1346      S1351   1.804       .  S
C1347      H1352   1.083       .  S
C1347      C1348   1.406       .  A
C1348      C1349   1.423       .  A
C1349      C1350   1.400       .  A
C1349      S1353   1.798       .  S
C1350      H1354   1.082       .  S
S1351      H1356   1.407       .  S
S1353      H1357   1.406       .  S
C1359      H1369   1.084       .  S
C1359      C1360   1.401       .  A
C1359      C1364   1.392       .  A
C1360      C1365   1.453       .  S
C1360      C1361   1.404       .  A
C1361      C1362   1.384       .  A
C1361      S1366   1.801       .  S
C1362      H1367   1.085       .  S
C1362      C1363   1.399       .  A
C1363      C1364   1.407       .  A
C1364      S1368   1.807       .  S
C1365      C1370   1.398       .  A
C1365      C1374   1.395       .  A
S1366      H1382   1.405       .  S
S1368      H1379   1.404       .  S
C1370      C1371   1.390       .  A
C1370      S1375   1.807       .  S
C1371      H1376   1.073       .  S
C1371      C1372   1.407       .  A
C1372      C1373   1.411       .  A
C1373      C1374   1.392       .  A
C1373      S1377   1.794       .  S
C1374      H1378   1.084       .  S
S1375      H1380   1.407       .  S
S1377      H1381   1.407       .  S
C1383      H1393   1.084       .  S
C1383      C1384   1.399       .  A
C1383      C1388   1.390       .  A
C1384      C1389   1.465       .  S
C1384      C1385   1.412       .  A
C1385      C1386   1.401       .  A
C1385      S1390   1.807       .  S
C1386      H1391   1.083       .  S
C1386      C1387   1.402       .  A
C1387      C1388   1.410       .  A
C1388      S1392   1.805       .  S
C1389      C1394   1.404       .  A
C1389      C1398   1.399       .  A
S1390      H1406   1.403       .  S
S1392      H1403   1.407       .  S
C1394      C1395   1.396       .  A
C1394      S1399   1.806       .  S
C1395      H1400   1.079       .  S
C1395      C1396   1.403       .  A
C1396      C1397   1.416       .  A
C1397      C1398   1.394       .  A
C1397      S1401   1.805       .  S
C1398      H1402   1.084       .  S
S1399      H1404   1.408       .  S
S1401      H1405   1.403       .  S
C1407      H1417   1.083       .  S
C1407      C1408   1.399       .  A
C1407      C1412   1.399       .  A
C1408      C1413   1.470       .  S
C1408      C1409   1.409       .  A
C1409      C1410   1.394       .  A
C1409      S1414   1.804       .  S
C1410      H1415   1.083       .  S
C1410      C1411   1.403       .  A
C1411      C1412   1.414       .  A
C1412      S1416   1.805       .  S
C1413      C1418   1.407       .  A
C1413      C1422   1.402       .  A
S1414      H1430   1.405       .  S
S1416      H1427   1.406       .  S
C1418      C1419   1.397       .  A
C1418      S1423   1.807       .  S
C1419      H1424   1.083       .  S
C1419      C1420   1.402       .  A
C1420      C1421   1.410       .  A
C1421      C1422   1.398       .  A
C1421      S1425   1.802       .  S
C1422      H1426   1.084       .  S
S1423      H1428   1.407       .  S
S1425      H1429   1.406       .  S
C1431      H1441   1.084       .  S
C1431      C1432   1.399       .  A
C1431      C1436   1.394       .  A
C1432      C1437   1.462       .  S
C1432      C1433   1.409       .  A
C1433      C1434   1.392       .  A
C1433      S1438   1.805       .  S
C1434      H1439   1.084       .  S
C1434      C1435   1.401       .  A
C1435      C1436   1.413       .  A
C1436      S1440   1.804       .  S
C1437      C1442   1.402       .  A
C1437      C1446   1.395       .  A
S1438      H1454   1.406       .  S
S1440      H1451   1.407       .  S
C1442      C1443   1.395       .  A
C1442      S1447   1.806       .  S
C1443      H1448   1.078       .  S
C1443      C1444   1.407       .  A
C1444      C1445   1.415       .  A
C1445      C1446   1.395       .  A
C1445      S1449   1.798       .  S
C1446      H1450   1.083       .  S
S1447      H1452   1.407       .  S
S1449      H1453   1.406       .  S
C1455      H1465   1.084       .  S
C1455      C1456   1.400       .  A
C1455      C1460   1.394       .  A
C1456      C1461   1.467       .  S
C1456      C1457   1.409       .  A
C1457      C1458   1.397       .  A
C1457      S1462   1.802       .  S
C1458      H1463   1.084       .  S
C1458      C1459   1.402       .  A
C1459      C1460   1.409       .  A
C1460      S1464   1.802       .  S
C1461      C1466   1.402       .  A
C1461      C1470   1.397       .  A
S1462      H1478   1.404       .  S
S1464      H1475   1.406       .  S
C1466      C1467   1.397       .  A
C1466      S1471   1.806       .  S
C1467      H1472   1.075       .  S
C1467      C1468   1.408       .  A
C1468      C1469   1.411       .  A
C1469      C1470   1.399       .  A
C1469      S1473   1.796       .  S
C1470      H1474   1.083       .  S
S1471      H1476   1.407       .  S
S1473      H1477   1.406       .  S
C1479      H1489   1.083       .  S
C1479      C1480   1.399       .  A
C1479      C1484   1.399       .  A
C1480      C1485   1.471       .  S
C1480      C1481   1.406       .  A
C1481      C1482   1.394       .  A
C1481      S1486   1.804       .  S
C1482      H1487   1.084       .  S
C1482      C1483   1.410       .  A
C1483      C1484   1.416       .  A
C1484      S1488   1.801       .  S
C1485      C1490   1.408       .  A
C1485      C1494   1.400       .  A
S1486      H1502   1.406       .  S
S1488      H1499   1.406       .  S
C1490      C1491   1.398       .  A
C1490      S1495   1.808       .  S
C1491      H1496   1.081       .  S
C1491      C1492   1.404       .  A
C1492      C1493   1.414       .  A
C1493      C1494   1.397       .  A
C1493      S1497   1.801       .  S
C1494      H1498   1.084       .  S
S1495      H1500   1.406       .  S
S1497      H1501   1.407       .  S
C1503      H1513   1.083       .  S
C1503      C1504   1.397       .  A
C1503      C1508   1.395       .  A
C1504      C1509   1.472       .  S
C1504      C1505   1.410       .  A
C1505      C1506   1.399       .  A
C1505      S1510   1.806       .  S
C1506      H1511   1.082       .  S
C1506      C1507   1.407       .  A
C1507      C1508   1.418       .  A
C1508      S1512   1.800       .  S
C1509      C1514   1.409       .  A
C1509      C1518   1.399       .  A
S1510      H1526   1.402       .  S
S1512      H1523   1.407       .  S
C1514      C1515   1.395       .  A
C1514      S1519   1.802       .  S
C1515      H1520   1.083       .  S
C1515      C1516   1.398       .  A
C1516      C1517   1.416       .  A
C1517      C1518   1.399       .  A
C1517      S1521   1.801       .  S
C1518      H1522   1.084       .  S
S1519      H1524   1.407       .  S
S1521      H1525   1.407       .  S
C1527      H1537   1.083       .  S
C1527      C1528   1.401       .  A
C1527      C1532   1.396       .  A
C1528      C1533   1.459       .  S
C1528      C1529   1.410       .  A
C1529      C1530   1.393       .  A
C1529      S1534   1.809       .  S
C1530      H1535   1.084       .  S
C1530      C1531   1.401       .  A
C1531      C1532   1.402       .  A
C1532      S1536   1.804       .  S
C1533      C1538   1.406       .  A
C1533      C1542   1.394       .  A
S1534      H1550   1.402       .  S
S1536      H1547   1.407       .  S
C1538      C1539   1.397       .  A
C1538      S1543   1.806       .  S
C1539      H1544   1.083       .  S
C1539      C1540   1.402       .  A
C1540      C1541   1.415       .  A
C1541      C1542   1.392       .  A
C1541      S1545   1.803       .  S
C1542      H1546   1.083       .  S
S1543      H1548   1.407       .  S
S1545      H1549   1.406       .  S
