geometry optimzed in LAMMPS
_audit_creation_date              2020-11-30 
_audit_creation_method            'lammps2cif' 
_symmetry_space_group_name_H-M    'P1' 
_symmetry_Int_Tables_number       1 
_symmetry_cell_setting            triclinic 
loop_ 
_symmetry_equiv_pos_as_xyz 
  x,y,z 
_cell_length_a                    36.11534489 
_cell_length_b                    36.05288393993184 
_cell_length_c                    36.07270700755246 
_cell_angle_alpha                 90.01404257319756 
_cell_angle_beta                  89.790107294041 
_cell_angle_gamma                 89.93291839832816 
loop_ 
_atom_site_label 
_atom_site_type_symbol 
_atom_site_fract_x 
_atom_site_fract_y 
_atom_site_fract_z 
_atom_site_charge 
C1          C  0.64761283  0.13104431  0.88411012     0.03100
C2          C  0.64807536  0.11856789  0.84697570    -0.13000
C3          C  0.65398238  0.14371363  0.81783273     0.00600
C4          C  0.65734860  0.18152189  0.82563036    -0.11500
C5          C  0.65666009  0.19442395  0.86212503     0.03100
C6          C  0.65199338  0.16920305  0.89142774    -0.11000
H7          H  0.64650512  0.08913348  0.84104776     0.08700
H8          H  0.66318167  0.20078603  0.80325356     0.06300
H9          H  0.65360964  0.17894397  0.91980559     0.06100
C10         C  0.81262770  0.12251678  0.70865686     0.03100
C11         C  0.82292506  0.16031313  0.70968360    -0.13000
C12         C  0.79604772  0.18817357  0.71414056     0.00600
C13         C  0.75889567  0.17787831  0.71935834    -0.11500
C14         C  0.74829357  0.14045805  0.71903928     0.03100
C15         C  0.77495835  0.11302090  0.71224670    -0.11000
H16         H  0.85191145  0.16791141  0.70838428     0.08700
H17         H  0.73838686  0.19901735  0.72555221     0.06300
H18         H  0.76669270  0.08414795  0.71189778     0.06100
C19         C  0.81997252  0.29565132  0.86814547     0.03100
C20         C  0.82795990  0.29462149  0.82992561    -0.13000
C21         C  0.79940858  0.28959310  0.80418374     0.00600
C22         C  0.76271680  0.28721805  0.81665225    -0.11500
C23         C  0.75434848  0.28845689  0.85455458     0.03100
C24         C  0.78301574  0.29245010  0.88030561    -0.11000
H25         H  0.85646777  0.29529241  0.82048642     0.08700
H26         H  0.74080190  0.28169908  0.79690382     0.06300
H27         H  0.77678672  0.29177564  0.90971851     0.06100
C28         C  0.65183723  0.29890763  0.87284458     0.03100
C29         C  0.64095256  0.26140482  0.87121549    -0.13000
C30         C  0.66756535  0.23316778  0.86882421     0.00600
C31         C  0.70508423  0.24245723  0.86609682    -0.11500
C32         C  0.71630461  0.27957515  0.86640803     0.03100
C33         C  0.68983784  0.30767662  0.87115554    -0.11000
H34         H  0.61182361  0.25427352  0.87073770     0.08700
H35         H  0.72542344  0.22080567  0.86128516     0.06300
H36         H  0.69862273  0.33639401  0.87133659     0.06100
C37         C  0.82001422  0.29075111  0.70064462     0.03100
C38         C  0.81576155  0.25243475  0.69274929    -0.13000
C39         C  0.80678052  0.22721577  0.72129762     0.00600
C40         C  0.80348045  0.24014620  0.75761771    -0.11500
C41         C  0.80780426  0.27770181  0.76599382     0.03100
C42         C  0.81596362  0.30302516  0.73759921    -0.11000
H43         H  0.81765023  0.24268475  0.66440212     0.08700
H44         H  0.79589503  0.22091634  0.77951763     0.06300
H45         H  0.81777585  0.33234634  0.74398996     0.06100
C46         C  0.64582699  0.11774572  0.71645066     0.03100
C47         C  0.63633393  0.12248623  0.75406246    -0.13000
C48         C  0.66376442  0.13111540  0.78011084     0.00600
C49         C  0.70065416  0.13493851  0.76839074    -0.11500
C50         C  0.71046975  0.13030724  0.73108126     0.03100
C51         C  0.68314714  0.12081053  0.70531232    -0.11000
H52         H  0.60751441  0.12200964  0.76249290     0.08700
H53         H  0.72154004  0.14360367  0.78811547     0.06300
H54         H  0.69038263  0.11862313  0.67618712     0.06100
C55         C  0.15455220  0.29485082  0.87696644     0.03100
C56         C  0.14432828  0.29018116  0.83960696    -0.13000
C57         C  0.17144755  0.28516748  0.81213922     0.00600
C58         C  0.20887311  0.28456854  0.82209913    -0.11500
C59         C  0.21956302  0.28887691  0.85914866     0.03100
C60         C  0.19239043  0.29477352  0.88646494    -0.11000
H61         H  0.11532638  0.28862675  0.83223980     0.08700
H62         H  0.22966562  0.27825003  0.80124210     0.06300
H63         H  0.20046785  0.29679503  0.91531211     0.06100
C64         C  0.15137550  0.12230295  0.70622916     0.03100
C65         C  0.14285343  0.16049776  0.70718592    -0.13000
C66         C  0.16966317  0.18632131  0.71804923     0.00600
C67         C  0.20581297  0.17436048  0.72496963    -0.11500
C68         C  0.21531335  0.13682188  0.72258128     0.03100
C69         C  0.18801222  0.11066834  0.71343563    -0.11000
H70         H  0.11465896  0.16968366  0.70258773     0.08700
H71         H  0.22648144  0.19435836  0.73364517     0.06300
H72         H  0.19477423  0.08139802  0.71371134     0.06100
C73         C  0.32422871  0.12741728  0.88078449     0.03100
C74         C  0.32099802  0.16516121  0.89038408    -0.13000
C75         C  0.31453609  0.19184491  0.86281457     0.00600
C76         C  0.31111203  0.18059435  0.82577243    -0.11500
C77         C  0.31435077  0.14318243  0.81594539     0.03100
C78         C  0.32203296  0.11679691  0.84331197    -0.11000
H79         H  0.32112293  0.17336555  0.91929387     0.08700
H80         H  0.30375757  0.20082696  0.80476146     0.06300
H81         H  0.32298824  0.08767012  0.83596663     0.06100
C82         C  0.32276820  0.29530749  0.87875436     0.03100
C83         C  0.28540548  0.30593102  0.87433601    -0.13000
C84         C  0.25785866  0.27894475  0.86936569     0.00600
C85         C  0.26776094  0.24142835  0.86845561    -0.11500
C86         C  0.30469393  0.23042450  0.87233096     0.03100
C87         C  0.33204837  0.25728909  0.87853144    -0.11000
H88         H  0.27810465  0.33505587  0.87304419     0.08700
H89         H  0.24682421  0.22073862  0.86245351     0.06300
H90         H  0.36078116  0.24886070  0.88058418     0.06100
C91         C  0.31741718  0.11567382  0.71462361     0.03100
C92         C  0.32892862  0.12275647  0.75116017    -0.13000
C93         C  0.30279286  0.13138780  0.77862318     0.00600
C94         C  0.26514549  0.13301144  0.76948602    -0.11500
C95         C  0.25325592  0.12592946  0.73321441     0.03100
C96         C  0.27939811  0.11631337  0.70605126    -0.11000
H97         H  0.35817351  0.12353750  0.75768109     0.08700
H98         H  0.24518426  0.14176663  0.79026244     0.06300
H99         H  0.27056870  0.11255768  0.67758819     0.06100
C100        C  0.14817731  0.28885076  0.70970409     0.03100
C101        C  0.15053408  0.25091511  0.70059868    -0.13000
C102        C  0.15962672  0.22479332  0.72785064     0.00600
C103        C  0.16439161  0.23642416  0.76459346    -0.11500
C104        C  0.16116877  0.27386277  0.77425465     0.03100
C105        C  0.15317572  0.30014112  0.74674928    -0.11000
H106        H  0.14797733  0.24218562  0.67195139     0.08700
H107        H  0.17233267  0.21637634  0.78555601     0.06300
H108        H  0.15264933  0.32936270  0.75374772     0.06100
C109        C  0.31217401  0.79450863  0.87349817     0.03100
C110        C  0.31024966  0.80367384  0.83555093    -0.13000
C111        C  0.30349666  0.77597859  0.80907710     0.00600
C112        C  0.30021306  0.73903216  0.82043162    -0.11500
C113        C  0.30282317  0.72947591  0.85791775     0.03100
C114        C  0.30847567  0.75722506  0.88445008    -0.11000
H115        H  0.31185678  0.83241253  0.82696157     0.08700
H116        H  0.29384158  0.71776274  0.80012995     0.06300
H117        H  0.30867754  0.75003598  0.91362822     0.06100
C118        C  0.14440569  0.78995686  0.69872481     0.03100
C119        C  0.18177905  0.80050831  0.70156567    -0.13000
C120        C  0.20854158  0.77460674  0.71209022     0.00600
C121        C  0.19835851  0.73752961  0.71745491    -0.11500
C122        C  0.16152524  0.72611404  0.71342642     0.03100
C123        C  0.13438020  0.75248073  0.70401561    -0.11000
H124        H  0.18938576  0.82945422  0.69888688     0.08700
H125        H  0.21908569  0.71763753  0.72636426     0.06300
H126        H  0.10552293  0.74442825  0.70309499     0.06100
C127        C  0.14858853  0.61298426  0.87202773     0.03100
C128        C  0.18549099  0.61828281  0.88330428    -0.13000
C129        C  0.21263342  0.62838281  0.85730388     0.00600
C130        C  0.20288350  0.63268730  0.81998678    -0.11500
C131        C  0.16635458  0.62742914  0.80832650     0.03100
C132        C  0.13926159  0.61707750  0.83433605    -0.11000
H133        H  0.19247294  0.61699873  0.91247419     0.08700
H134        H  0.22351256  0.64212652  0.80020240     0.06300
H135        H  0.11062386  0.61477619  0.82582334     0.06100
C136        C  0.31522092  0.62745865  0.87819674     0.03100
C137        C  0.32319734  0.66551843  0.87518722    -0.13000
C138        C  0.29459548  0.69105812  0.86890292     0.00600
C139        C  0.25804998  0.67858135  0.86619729    -0.11500
C140        C  0.24971807  0.64077161  0.86894021     0.03100
C141        C  0.27827980  0.61524927  0.87553668    -0.11000
H142        H  0.35170580  0.67484470  0.87519712     0.08700
H143        H  0.23629241  0.69811551  0.85928027     0.06300
H144        H  0.27223449  0.58579630  0.87577740     0.06100
C145        C  0.14378914  0.62273388  0.70564271     0.03100
C146        C  0.14408898  0.66083052  0.69661022    -0.13000
C147        C  0.15203022  0.68751956  0.72379767     0.00600
C148        C  0.15764922  0.67609283  0.76052124    -0.11500
C149        C  0.15620382  0.63847151  0.77023451     0.03100
C150        C  0.14964685  0.61184005  0.74269042    -0.11000
H151        H  0.14072051  0.66942384  0.66803172     0.08700
H152        H  0.16483903  0.69650363  0.78140381     0.06300
H153        H  0.15058105  0.58264382  0.74976488     0.06100
C154        C  0.31050106  0.79661089  0.70602185     0.03100
C155        C  0.27270429  0.79570233  0.69643671    -0.13000
C156        C  0.24598531  0.78640944  0.72306707     0.00600
C157        C  0.25641893  0.78233650  0.76014685    -0.11500
C158        C  0.29351697  0.78549050  0.77064569     0.03100
C159        C  0.32064879  0.79182756  0.74346368    -0.11000
H160        H  0.26453172  0.79867043  0.66770637     0.08700
H161        H  0.23576138  0.77469774  0.78068722     0.06300
H162        H  0.34961471  0.79111995  0.75112627     0.06100
C163        C  0.81602623  0.79414397  0.70248452     0.03100
C164        C  0.82381590  0.75585802  0.70055579    -0.13000
C165        C  0.79577021  0.72970494  0.70695026     0.00600
C166        C  0.75921618  0.74176533  0.71199300    -0.11500
C167        C  0.75068511  0.77962249  0.71284791     0.03100
C168        C  0.77923698  0.80575147  0.70906858    -0.11000
H169        H  0.85210209  0.74647116  0.69687295     0.08700
H170        H  0.73773871  0.72164869  0.71808092     0.06300
H171        H  0.77300571  0.83499550  0.71214704     0.06100
C172        C  0.64917354  0.80294000  0.87715947     0.03100
C173        C  0.64923984  0.76486379  0.88661009    -0.13000
C174        C  0.65539719  0.73776689  0.85932778     0.00600
C175        C  0.65886219  0.74852664  0.82226648    -0.11500
C176        C  0.65835197  0.78596640  0.81223910     0.03100
C177        C  0.65419288  0.81321377  0.83971904    -0.11000
H178        H  0.64682716  0.75652586  0.91536665     0.08700
H179        H  0.66437407  0.72765168  0.80125113     0.06300
H180        H  0.65595780  0.84224756  0.83215474     0.06100
C181        C  0.81560482  0.62619393  0.87085492     0.03100
C182        C  0.82479457  0.62650684  0.83275276    -0.13000
C183        C  0.79832594  0.63700097  0.80637926     0.00600
C184        C  0.76187279  0.64398904  0.81774041    -0.11500
C185        C  0.75188446  0.64216368  0.85512301     0.03100
C186        C  0.77888878  0.63412195  0.88175563    -0.11000
H187        H  0.85301848  0.62122338  0.82398225     0.08700
H188        H  0.74135055  0.65219957  0.79742097     0.06300
H189        H  0.77155786  0.63497989  0.91091801     0.06100
C190        C  0.81962902  0.62673608  0.70385457     0.03100
C191        C  0.81296444  0.66347591  0.69195648    -0.13000
C192        C  0.80528157  0.69144686  0.71791782     0.00600
C193        C  0.80307422  0.68247367  0.75554618    -0.11500
C194        C  0.80870812  0.64611596  0.76780122     0.03100
C195        C  0.81859015  0.61859552  0.74213621    -0.11000
H196        H  0.81263635  0.66999162  0.66264625     0.08700
H197        H  0.79530282  0.70376646  0.77540390     0.06300
H198        H  0.82280871  0.59037971  0.75160151     0.06100
C199        C  0.64894520  0.63369174  0.87236394     0.03100
C200        C  0.63864212  0.67148290  0.87296433    -0.13000
C201        C  0.66560395  0.69925840  0.86889490     0.00600
C202        C  0.70303024  0.68921938  0.86600077    -0.11500
C203        C  0.71364920  0.65189674  0.86566179     0.03100
C204        C  0.68657237  0.62424902  0.86841872    -0.11000
H205        H  0.60964506  0.67910264  0.87426770     0.08700
H206        H  0.72372560  0.71047572  0.86123368     0.06300
H207        H  0.69461453  0.59536635  0.86596318     0.06100
C208        C  0.64722796  0.79716496  0.70897330     0.03100
C209        C  0.68438996  0.79318144  0.69754773    -0.13000
C210        C  0.71289108  0.79084909  0.72384979     0.00600
C211        C  0.70410739  0.79216124  0.76165108    -0.11500
C212        C  0.66725651  0.79538441  0.77347606     0.03100
C213        C  0.63894578  0.79869696  0.74712344    -0.11000
H214        H  0.69090292  0.79026724  0.66833289     0.08700
H215        H  0.72573157  0.78760447  0.78195291     0.06300
H216        H  0.61034474  0.79992843  0.75623247     0.06100
C217        C  0.13941036  0.61066650  0.20733377     0.03100
C218        C  0.13048414  0.61306275  0.24547143    -0.13000
C219        C  0.15668570  0.62609069  0.27098149     0.00600
C220        C  0.19273102  0.63366415  0.25887876    -0.11500
C221        C  0.20278485  0.62978226  0.22159009     0.03100
C222        C  0.17598644  0.61865787  0.19570974    -0.11000
H223        H  0.10247890  0.60753507  0.25476779     0.08700
H224        H  0.21299426  0.64372556  0.27860805     0.06300
H225        H  0.18312660  0.61779099  0.16651309     0.06100
C226        C  0.14302169  0.78699950  0.37782371     0.03100
C227        C  0.18106459  0.79593772  0.37884227    -0.13000
C228        C  0.20800320  0.76834173  0.37312558     0.00600
C229        C  0.19690921  0.73141597  0.36853370    -0.11500
C230        C  0.15936016  0.72187036  0.36832419     0.03100
C231        C  0.13246127  0.74970645  0.37264242    -0.11000
H232        H  0.18954550  0.82465150  0.38123666     0.08700
H233        H  0.21753676  0.71033974  0.36259076     0.06300
H234        H  0.10340255  0.74263061  0.37033620     0.06100
C235        C  0.31263637  0.79013773  0.21094306     0.03100
C236        C  0.30783357  0.75300913  0.19977023    -0.13000
C237        C  0.30010707  0.72539985  0.22610729     0.00600
C238        C  0.29761916  0.73502373  0.26365755    -0.11500
C239        C  0.30245424  0.77183299  0.27530279     0.03100
C240        C  0.31032498  0.79934596  0.24888520    -0.11000
H241        H  0.30813659  0.74603478  0.17054921     0.08700
H242        H  0.29007380  0.71398624  0.28381413     0.06300
H243        H  0.31239400  0.82807016  0.25746281     0.06100
C244        C  0.30570239  0.62275738  0.20300484     0.03100
C245        C  0.31622718  0.65999901  0.20847496    -0.13000
C246        C  0.28938250  0.68749693  0.21472280     0.00600
C247        C  0.25187347  0.67757187  0.21591641    -0.11500
C248        C  0.24081817  0.64064085  0.21063758     0.03100
C249        C  0.26775162  0.61349743  0.20311245    -0.11000
H250        H  0.34532755  0.66720416  0.20978229     0.08700
H251        H  0.23135367  0.69830144  0.22325799     0.06300
H252        H  0.25947395  0.58474076  0.20040698     0.06100
C253        C  0.31155678  0.78755417  0.37900289     0.03100
C254        C  0.27422422  0.78279779  0.38985879    -0.13000
C255        C  0.24645533  0.77823192  0.36307115     0.00600
C256        C  0.25614837  0.77751000  0.32548316    -0.11500
C257        C  0.29302044  0.78132071  0.31412556     0.03100
C258        C  0.32052708  0.78764536  0.34081592    -0.11000
H259        H  0.26706127  0.78113693  0.41900471     0.08700
H260        H  0.23502630  0.77173127  0.30495443     0.06300
H261        H  0.34917125  0.79001897  0.33209645     0.06100
C262        C  0.13885511  0.61886174  0.37437237     0.03100
C263        C  0.14372644  0.65622093  0.38475800    -0.13000
C264        C  0.14902250  0.68369722  0.35776263     0.00600
C265        C  0.15053222  0.67359693  0.32031140    -0.11500
C266        C  0.14647537  0.63644915  0.30941618     0.03100
C267        C  0.13926278  0.60934707  0.33641032    -0.11000
H268        H  0.14502396  0.66363040  0.41384392     0.08700
H269        H  0.15709301  0.69447813  0.29966855     0.06300
H270        H  0.13691937  0.58051786  0.32819016     0.06100
C271        C  0.64037410  0.78868506  0.20684996     0.03100
C272        C  0.64704124  0.75216175  0.19452148    -0.13000
C273        C  0.65452855  0.72390446  0.22020466     0.00600
C274        C  0.65555817  0.73216370  0.25804182    -0.11500
C275        C  0.64914493  0.76822499  0.27067642     0.03100
C276        C  0.64047127  0.79625631  0.24520088    -0.11000
H277        H  0.64823084  0.74618413  0.16508461     0.08700
H278        H  0.66343950  0.71076413  0.27766039     0.06300
H279        H  0.63690851  0.82450938  0.25489184     0.06100
C280        C  0.81274191  0.79198018  0.37003792     0.03100
C281        C  0.77482701  0.80124153  0.36749179    -0.13000
C282        C  0.74816658  0.77330658  0.36263971     0.00600
C283        C  0.75970908  0.73629042  0.35946628    -0.11500
C284        C  0.79725342  0.72680809  0.36152055     0.03100
C285        C  0.82357374  0.75451046  0.36786659    -0.11000
H286        H  0.76631216  0.83011393  0.36790856     0.08700
H287        H  0.73947288  0.71490975  0.35355254     0.06300
H288        H  0.85266078  0.74723072  0.36888501     0.06100
C289        C  0.81444104  0.61272347  0.20354138     0.03100
C290        C  0.77692402  0.61624628  0.19352137    -0.13000
C291        C  0.75046447  0.62691879  0.21992155     0.00600
C292        C  0.76126386  0.63218469  0.25680334    -0.11500
C293        C  0.79831252  0.62777276  0.26747926     0.03100
C294        C  0.82491457  0.61794508  0.24075520    -0.11000
H295        H  0.76893898  0.61357405  0.16473292     0.08700
H296        H  0.74100269  0.64154459  0.27700183     0.06300
H297        H  0.85391232  0.61681741  0.24833456     0.06100
C298        C  0.64804947  0.62187476  0.19858129     0.03100
C299        C  0.63828211  0.65948843  0.20177312    -0.13000
C300        C  0.66541018  0.68632811  0.20843623     0.00600
C301        C  0.70249545  0.67545886  0.21203467    -0.11500
C302        C  0.71272572  0.63805415  0.20878678     0.03100
C303        C  0.68558605  0.61142624  0.20095053    -0.11000
H304        H  0.60931352  0.66746735  0.20186194     0.08700
H305        H  0.72310989  0.69585925  0.21971423     0.06300
H306        H  0.69312416  0.58230285  0.19998721     0.06100
C307        C  0.82517670  0.62572114  0.36921493     0.03100
C308        C  0.82026728  0.66341147  0.37844744    -0.13000
C309        C  0.80876461  0.68883650  0.35144802     0.00600
C310        C  0.80364130  0.67689266  0.31495305    -0.11500
C311        C  0.80924765  0.63972202  0.30505792     0.03100
C312        C  0.82025753  0.61412550  0.33225682    -0.11000
H313        H  0.82266932  0.67224386  0.40696522     0.08700
H314        H  0.79372377  0.69642779  0.29431135     0.06300
H315        H  0.82257185  0.58491054  0.32523729     0.06100
C316        C  0.64417748  0.78414544  0.37461999     0.03100
C317        C  0.68243844  0.78592959  0.38278884    -0.13000
C318        C  0.70899022  0.78193852  0.35442593     0.00600
C319        C  0.69725124  0.77861184  0.31770081    -0.11500
C320        C  0.65956926  0.77729105  0.30902646     0.03100
C321        C  0.63314602  0.77926566  0.33747289    -0.11000
H322        H  0.69149707  0.78830988  0.41128922     0.08700
H323        H  0.71764025  0.77456696  0.29588213     0.06300
H324        H  0.60406652  0.77599109  0.33081359     0.06100
C325        C  0.81430992  0.29205079  0.20257759     0.03100
C326        C  0.77589367  0.29249602  0.19503299    -0.13000
C327        C  0.75003954  0.28701508  0.22374276     0.00600
C328        C  0.76264546  0.28315653  0.26021907    -0.11500
C329        C  0.80053402  0.28332407  0.26830888     0.03100
C330        C  0.82627953  0.28711240  0.23943569    -0.11000
H331        H  0.76628556  0.29508977  0.16674012     0.08700
H332        H  0.74281991  0.27811110  0.28232010     0.06300
H333        H  0.85559341  0.28528716  0.24550536     0.06100
C334        C  0.81817556  0.12990719  0.38020203     0.03100
C335        C  0.78072360  0.11934901  0.37768213    -0.13000
C336        C  0.75300955  0.14618729  0.37308256     0.00600
C337        C  0.76272419  0.18367026  0.37031793    -0.11500
C338        C  0.79978889  0.19473519  0.37193415     0.03100
C339        C  0.82742619  0.16790950  0.37791769    -0.11000
H340        H  0.77336276  0.09022785  0.37751732     0.08700
H341        H  0.74152506  0.20407225  0.36409691     0.06300
H342        H  0.85623093  0.17625579  0.37815202     0.06100
C343        C  0.64417940  0.12854172  0.21556699     0.03100
C344        C  0.64466587  0.16636636  0.20567407    -0.13000
C345        C  0.65196185  0.19354677  0.23246251     0.00600
C346        C  0.65622692  0.18320870  0.26953801    -0.11500
C347        C  0.65473120  0.14588786  0.27997194     0.03100
C348        C  0.64919643  0.11855228  0.25294836    -0.11000
H349        H  0.64205067  0.17436873  0.17684995     0.08700
H350        H  0.66312041  0.20411976  0.29004381     0.06300
H351        H  0.65061197  0.08955330  0.26068810     0.06100
C352        C  0.64563394  0.29649024  0.21310667     0.03100
C353        C  0.68366083  0.30578043  0.21181444    -0.13000
C354        C  0.71076623  0.27804829  0.21616389     0.00600
C355        C  0.69964577  0.24106196  0.22033680    -0.11500
C356        C  0.66211100  0.23155838  0.22162075     0.03100
C357        C  0.63521177  0.25925271  0.21827591    -0.11000
H358        H  0.69197260  0.33455268  0.20955726     0.08700
H359        H  0.72037025  0.21976287  0.22502424     0.06300
H360        H  0.60620866  0.25206480  0.22106491     0.06100
C361        C  0.65087396  0.12422361  0.38259955     0.03100
C362        C  0.68868058  0.12736336  0.39161346    -0.13000
C363        C  0.71480112  0.13546414  0.36391318     0.00600
C364        C  0.70328786  0.13920350  0.32715586    -0.11500
C365        C  0.66594197  0.13584352  0.31779342     0.03100
C366        C  0.63967091  0.12833474  0.34548425    -0.11000
H367        H  0.69734637  0.12572261  0.42031336     0.08700
H368        H  0.72329090  0.14678873  0.30596490     0.06300
H369        H  0.61053073  0.12745321  0.33852804     0.06100
C370        C  0.82465021  0.29767956  0.36935599     0.03100
C371        C  0.82337994  0.30368135  0.33067974    -0.13000
C372        C  0.81223587  0.27519420  0.30664336     0.00600
C373        C  0.80620822  0.23957948  0.32068757    -0.11500
C374        C  0.80939386  0.23231961  0.35863469     0.03100
C375        C  0.81735595  0.26159829  0.38303849    -0.11000
H376        H  0.82884098  0.33099966  0.31945549     0.08700
H377        H  0.79739479  0.21763995  0.30209755     0.06300
H378        H  0.81706526  0.25646791  0.41262566     0.06100
C379        C  0.14608053  0.28836777  0.20667776     0.03100
C380        C  0.18397443  0.28659546  0.19726591    -0.13000
C381        C  0.21058624  0.28069786  0.22492952     0.00600
C382        C  0.19934445  0.27726557  0.26188249    -0.11500
C383        C  0.16189563  0.27878031  0.27165365     0.03100
C384        C  0.13519566  0.28452769  0.24405954    -0.11000
H385        H  0.19245109  0.28786754  0.16842330     0.08700
H386        H  0.21980017  0.27118565  0.28299641     0.06300
H387        H  0.10607072  0.28423763  0.25131083     0.06100
C388        C  0.31568399  0.12153841  0.21130984     0.03100
C389        C  0.31623500  0.11217084  0.24917478    -0.13000
C390        C  0.31153410  0.13968336  0.27622620     0.00600
C391        C  0.30824897  0.17688137  0.26537530    -0.11500
C392        C  0.30821341  0.18670378  0.22778607     0.03100
C393        C  0.31138214  0.15890175  0.20078834    -0.11000
H394        H  0.31792224  0.08333734  0.25742946     0.08700
H395        H  0.30305183  0.19800619  0.28620218     0.06300
H396        H  0.30938344  0.16613985  0.17169538     0.06100
C397        C  0.15023227  0.11855165  0.37930374     0.03100
C398        C  0.13910482  0.15568804  0.37482389    -0.13000
C399        C  0.16546558  0.18348598  0.36879499     0.00600
C400        C  0.20308730  0.17404559  0.36726968    -0.11500
C401        C  0.21465704  0.13713397  0.37172171     0.03100
C402        C  0.18818351  0.10948779  0.37849881    -0.11000
H403        H  0.10989957  0.16257162  0.37398382     0.08700
H404        H  0.22330865  0.19521270  0.36046641     0.06300
H405        H  0.19676185  0.08073797  0.38030804     0.06100
C406        C  0.31755392  0.11592904  0.37871986     0.03100
C407        C  0.27973314  0.11833239  0.38854161    -0.13000
C408        C  0.25316130  0.12739114  0.36170505     0.00600
C409        C  0.26423282  0.13232988  0.32486251    -0.11500
C410        C  0.30146212  0.12945969  0.31452624     0.03100
C411        C  0.32819920  0.12114889  0.34142563    -0.11000
H412        H  0.27146973  0.11587695  0.41736289     0.08700
H413        H  0.24382822  0.14015949  0.30426801     0.06300
H414        H  0.35723654  0.12076883  0.33382902     0.06100
C415        C  0.14286410  0.28596944  0.37467112     0.03100
C416        C  0.14680843  0.24849052  0.38501816    -0.13000
C417        C  0.15406508  0.22130926  0.35812333     0.00600
C418        C  0.15598916  0.23144238  0.32071860    -0.11500
C419        C  0.15159949  0.26850326  0.30988982     0.03100
C420        C  0.14499473  0.29577073  0.33691859    -0.11000
H421        H  0.14668424  0.24094072  0.41410238     0.08700
H422        H  0.16325042  0.21069810  0.30011111     0.06300
H423        H  0.14385137  0.32470180  0.32890780     0.06100
C424        C  0.31424123  0.29056078  0.21237433     0.03100
C425        C  0.27628850  0.29968504  0.21351816    -0.13000
C426        C  0.24940746  0.27173940  0.21592684     0.00600
C427        C  0.26047982  0.23456056  0.21767370    -0.11500
C428        C  0.29802003  0.22499550  0.21759030     0.03100
C429        C  0.32489612  0.25293255  0.21418269    -0.11000
H430        H  0.26780834  0.32851934  0.21419793     0.08700
H431        H  0.23983519  0.21315297  0.22193575     0.06300
H432        H  0.35399583  0.24559695  0.21478789     0.06100
O433        O  0.51629378  0.50166968  0.23540016    -0.72900
O434        O  0.43567895  0.42436413  0.24029033    -0.73900
O435        O  0.51474205  0.42214982  0.24103738    -0.62500
O436        O  0.43760553  0.50304961  0.23462083    -0.70900
O437        O  0.43638779  0.49703535  0.17368067    -0.70500
O438        O  0.51762449  0.42031472  0.17997749    -0.61800
O439        O  0.43886475  0.41808714  0.17943028    -0.74300
O440        O  0.51639771  0.49828451  0.17440527    -0.73000
Cu441      Cu  0.47611427  0.46301205  0.23994253     1.04600
Cu442      Cu  0.47730843  0.45838928  0.17478244     1.04300
C443        C  0.52937946  0.51227460  0.20418755     0.93300
C444        C  0.42473879  0.40857322  0.21055783     0.92400
C445        C  0.52871387  0.40846170  0.21140107     0.84500
C446        C  0.42383919  0.51208839  0.20330086     0.90800
O447        O  0.10616798  0.49397527  0.57983002    -0.72900
O448        O  0.10820691  0.41158478  0.50333092    -0.73900
O449        O  0.10820896  0.41372174  0.58205736    -0.62500
O450        O  0.10637926  0.49087010  0.50058814    -0.70900
O451        O  0.16737869  0.49460160  0.50335695    -0.70500
O452        O  0.16919601  0.41479861  0.58065163    -0.61800
O453        O  0.16893566  0.41572663  0.50097956    -0.74300
O454        O  0.16725445  0.49303814  0.58173109    -0.73000
Cu455      Cu  0.10506291  0.45250049  0.54154916     1.04600
Cu456      Cu  0.17021030  0.45449104  0.54167897     1.04300
C457        C  0.13653117  0.50671502  0.59286087     0.93300
C458        C  0.13897977  0.40095208  0.48931578     0.92400
C459        C  0.13922920  0.40155580  0.59401168     0.84500
C460        C  0.13677720  0.50521190  0.48928239     0.90800
O461        O  0.52430441  0.08256085  0.50870040    -0.72900
O462        O  0.44209237  0.07953597  0.58510971    -0.73900
O463        O  0.44429593  0.08091689  0.50617494    -0.62500
O464        O  0.52179104  0.08111651  0.58745166    -0.70900
O465        O  0.51934797  0.14210327  0.58856011    -0.70500
O466        O  0.44414414  0.14191213  0.50684242    -0.61800
O467        O  0.44164026  0.14072780  0.58604699    -0.74300
O468        O  0.52206064  0.14353328  0.50934078    -0.73000
Cu469      Cu  0.48315790  0.07884367  0.54678895     1.04600
Cu470      Cu  0.48175289  0.14404813  0.54771209     1.04300
C471        C  0.53640075  0.11368895  0.49680334     0.93300
C472        C  0.42893922  0.10990433  0.59792599     0.92400
C473        C  0.43172500  0.11159478  0.49354060     0.84500
C474        C  0.53292779  0.11190060  0.60103403     0.90800
O475        O  0.80340241  0.50020608  0.57597806    -0.72900
O476        O  0.80696370  0.42181774  0.49649862    -0.73900
O477        O  0.80415813  0.42124587  0.57570367    -0.62500
O478        O  0.80591686  0.49993436  0.49714985    -0.70900
O479        O  0.86658518  0.50434410  0.50138644    -0.70500
O480        O  0.86519232  0.41844377  0.57493075    -0.61800
O481        O  0.86823181  0.42485941  0.49561871    -0.74300
O482        O  0.86441362  0.49816830  0.58066556    -0.73000
Cu483      Cu  0.80311049  0.46076406  0.53634494     1.04600
Cu484      Cu  0.86832867  0.46147227  0.53826878     1.04300
C485        C  0.83324987  0.51137633  0.59128961     0.93300
C486        C  0.83803988  0.41166797  0.48273769     0.92400
C487        C  0.83411777  0.40644546  0.58727595     0.84500
C488        C  0.83610072  0.51528094  0.48699291     0.90800
O489        O  0.51780449  0.82260069  0.58340040    -0.72900
O490        O  0.44259682  0.82095536  0.50105913    -0.73900
O491        O  0.43924440  0.82455448  0.57970804    -0.62500
O492        O  0.52147280  0.81896275  0.50423025    -0.70900
O493        O  0.51810342  0.75763738  0.50429918    -0.70500
O494        O  0.44074863  0.76336328  0.58494190    -0.61800
O495        O  0.43887122  0.75992369  0.50609537    -0.74300
O496        O  0.52000702  0.76145498  0.58340500    -0.73000
Cu497      Cu  0.48041372  0.82384198  0.54201608     1.04600
Cu498      Cu  0.47941097  0.75842735  0.54481298     1.04300
C499        C  0.53143725  0.79249964  0.59617260     0.93300
C500        C  0.42806677  0.79022785  0.49110413     0.92400
C501        C  0.42712046  0.79472225  0.59445407     0.84500
C502        C  0.53223518  0.78757156  0.49162838     0.90800
O503        O  0.52330166  0.42364962  0.84530373    -0.72900
O504        O  0.44713351  0.50523120  0.84612542    -0.73900
O505        O  0.52587329  0.50238236  0.84397803    -0.62500
O506        O  0.44452785  0.42597001  0.84727883    -0.70900
O507        O  0.44953274  0.42306687  0.90826595    -0.70500
O508        O  0.52311716  0.50701807  0.90502684    -0.61800
O509        O  0.44426532  0.50184509  0.90689466    -0.74300
O510        O  0.52804330  0.42829013  0.90628757    -0.73000
Cu511      Cu  0.48511543  0.46428166  0.84352072     1.04600
Cu512      Cu  0.48626784  0.46512782  0.90874113     1.04300
C513        C  0.53838943  0.41363825  0.87570065     0.93300
C514        C  0.43280786  0.51614917  0.87666313     0.92400
C515        C  0.53698527  0.51735647  0.87404923     0.84500
C516        C  0.43487429  0.41152980  0.87821674     0.90800
O517        O  0.01895201  0.99650839  0.34797490    -0.72900
O518        O  0.93781383  0.92074582  0.34824035    -0.73900
O519        O  0.94046925  0.99918631  0.35012094    -0.62500
O520        O  0.01657982  0.91655983  0.34690903    -0.70900
O521        O  0.01820211  0.91600168  0.40805808    -0.70500
O522        O  0.94270334  0.99845317  0.41123970    -0.61800
O523        O  0.93931238  0.91814391  0.40936897    -0.74300
O524        O  0.02138817  0.99427245  0.40898827    -0.73000
Cu525      Cu  0.97844966  0.95827206  0.34622815     1.04600
Cu526      Cu  0.98029726  0.95669516  0.41152464     1.04300
C527        C  0.03310553  0.00772253  0.37834989     0.93300
C528        C  0.92599423  0.90679732  0.37854052     0.92400
C529        C  0.92981949  0.01232683  0.38131890     0.84500
C530        C  0.02953511  0.90309237  0.37707222     0.90800
O531        O  0.01928955  0.00211815  0.66610286    -0.72900
O532        O  0.94444098  0.91879986  0.66647994    -0.73900
O533        O  0.93995129  0.99760417  0.66838299    -0.62500
O534        O  0.02340972  0.92315735  0.66416868    -0.70900
O535        O  0.02065224  0.91859393  0.72507911    -0.70500
O536        O  0.94439294  0.99956962  0.72946980    -0.61800
O537        O  0.94246054  0.92092264  0.72778570    -0.74300
O538        O  0.02322133  0.99745147  0.72714286    -0.73000
Cu539      Cu  0.98171346  0.96052927  0.66409771     1.04600
Cu540      Cu  0.98279080  0.95914301  0.72945090     1.04300
C541        C  0.03375851  0.01236438  0.69674824     0.93300
C542        C  0.93116498  0.90710875  0.69725477     0.92400
C543        C  0.92909501  0.01063664  0.69955997     0.84500
C544        C  0.03474726  0.90830017  0.69421106     0.90800
O545        O  0.35051618  0.91781821  0.00301592    -0.72900
O546        O  0.35125407  0.99492624  0.08439499    -0.73900
O547        O  0.35007479  0.91649972  0.08314916    -0.62500
O548        O  0.35215575  0.99642023  0.00474658    -0.70900
O549        O  0.29122327  0.99804352  0.00510014    -0.70500
O550        O  0.28927032  0.91742223  0.08245480    -0.61800
O551        O  0.29018459  0.99649356  0.08311979    -0.74300
O552        O  0.28951673  0.91863112  0.00406500    -0.73000
Cu553      Cu  0.35314670  0.95632021  0.04379977     1.04600
Cu554      Cu  0.28802618  0.95762617  0.04362733     1.04300
C555        C  0.31963551  0.90604623  0.99039804     0.93300
C556        C  0.32064754  0.00796109  0.09671980     0.92400
C557        C  0.31929957  0.90443260  0.09584698     0.84500
C558        C  0.32200172  0.01033271  0.99259488     0.90800
O559        O  0.94046840  0.32765928  0.07429526    -0.72900
O560        O  0.02551994  0.32707810  0.00172489    -0.73900
O561        O  0.94714515  0.32880348  0.99506944    -0.62500
O562        O  0.01983240  0.32537919  0.07987292    -0.70900
O563        O  0.01931920  0.26456967  0.07747467    -0.70500
O564        O  0.94289766  0.26780043  0.99679510    -0.61800
O565        O  0.02177198  0.26603508  0.99809509    -0.74300
O566        O  0.94097783  0.26635043  0.07555452    -0.73000
Cu567      Cu  0.98318827  0.32934979  0.03783708     1.04600
Cu568      Cu  0.98120301  0.26409747  0.03692270     1.04300
C569        C  0.92761474  0.29713427  0.08699044     0.93300
C570        C  0.03685206  0.29649145  0.98791600     0.92400
C571        C  0.93330777  0.29873351  0.98246709     0.84500
C572        C  0.03188514  0.29430855  0.09188938     0.90800
O573        O  0.61238327  0.00429764  0.00926281    -0.72900
O574        O  0.60789481  0.92384486  0.08752672    -0.73900
O575        O  0.60977837  0.00317089  0.08839908    -0.62500
O576        O  0.61036605  0.92487829  0.00809743    -0.70900
O577        O  0.67160722  0.92701373  0.00714082    -0.70500
O578        O  0.67072632  0.99813090  0.09263791    -0.61800
O579        O  0.66890229  0.91964028  0.08530348    -0.74300
O580        O  0.67326821  0.00562860  0.01464351    -0.73000
Cu581      Cu  0.60787964  0.96407554  0.04826741     1.04600
Cu582      Cu  0.67315673  0.96251254  0.04999695     1.04300
C583        C  0.64366203  0.01824081  0.00003006     0.93300
C584        C  0.63794104  0.90864853  0.09852206     0.92400
C585        C  0.64035442  0.01295857  0.10324281     0.84500
C586        C  0.64129536  0.91387134  0.99460862     0.90800
O587        O  0.01591073  0.56769402  0.07671659    -0.72900
O588        O  0.94035476  0.57660627  0.99389219    -0.73900
O589        O  0.01945742  0.57234045  0.99637081    -0.62500
O590        O  0.93661146  0.57225404  0.07284090    -0.70900
O591        O  0.94182749  0.63310323  0.07764225    -0.70500
O592        O  0.02135348  0.63307771  0.00067462    -0.61800
O593        O  0.94256357  0.63772114  0.99922992    -0.74300
O594        O  0.01943531  0.62894148  0.07820855    -0.73000
Cu595      Cu  0.97806447  0.56992879  0.03479959     1.04600
Cu596      Cu  0.98142017  0.63512445  0.03894596     1.04300
C597        C  0.02913840  0.59741353  0.09093096     0.93300
C598        C  0.92914234  0.60877059  0.98394314     0.92400
C599        C  0.03345931  0.60327220  0.98602520     0.84500
C600        C  0.92630095  0.60290590  0.08753269     0.90800
C601        C  0.36720705  0.32495963  0.24214592    -0.01800
C602        C  0.34259922  0.32065908  0.21209782     0.07800
C603        C  0.34415481  0.34607155  0.18241190    -0.02000
C604        C  0.36937086  0.37590900  0.18307757    -0.02000
C605        C  0.39572402  0.37897304  0.21193635     0.08000
C606        C  0.39442485  0.35307137  0.24152377    -0.02200
Br607      Br  0.43063684  0.35430864  0.28084978    -0.00700
Br608      Br  0.36255874  0.29344783  0.28528472    -0.00800
Br609      Br  0.36519342  0.41401820  0.14561623    -0.00700
Br610      Br  0.31260865  0.33924802  0.13981090    -0.00700
C611        C  0.10842310  0.36460178  0.43674136    -0.01800
C612        C  0.13992129  0.37150071  0.45951117     0.07800
C613        C  0.17242185  0.34989313  0.45317738    -0.02000
C614        C  0.17330597  0.32276521  0.42495464    -0.02000
C615        C  0.14159703  0.31536952  0.40364134     0.08000
C616        C  0.10923926  0.33627488  0.40960995    -0.02200
Br617      Br  0.06567081  0.32540599  0.38060317    -0.00700
Br618      Br  0.06403477  0.39451651  0.44015674    -0.00800
Br619      Br  0.21879581  0.29625626  0.41432970    -0.00700
Br620      Br  0.21627357  0.35518200  0.48332482    -0.00700
C621        C  0.39728054  0.08174327  0.43926811    -0.01800
C622        C  0.40243972  0.11235173  0.46375214     0.07800
C623        C  0.37914918  0.14401954  0.45924405    -0.02000
C624        C  0.35195195  0.14488431  0.43130545    -0.02000
C625        C  0.34635315  0.11403315  0.40812853     0.08000
C626        C  0.36899925  0.08250714  0.41219677    -0.02200
Br627      Br  0.36068252  0.04003366  0.38065735    -0.00700
Br628      Br  0.42976627  0.03906703  0.44015815    -0.00800
Br629      Br  0.32293777  0.18946102  0.42358761    -0.00700
Br630      Br  0.38246828  0.18708865  0.49104554    -0.00700
C631        C  0.11676478  0.06623236  0.34852880    -0.01800
C632        C  0.12168528  0.08899756  0.37986158     0.07800
C633        C  0.09732502  0.08580292  0.41017297    -0.02000
C634        C  0.06758527  0.06055787  0.40903332    -0.02000
C635        C  0.06318507  0.03634865  0.37824430     0.08000
C636        C  0.08799369  0.03983487  0.34769988    -0.02200
Br637      Br  0.08372549  0.00922643  0.30391314    -0.00700
Br638      Br  0.14884960  0.07229959  0.30582895    -0.00800
Br639      Br  0.03127925  0.06270251  0.44856111    -0.00700
Br640      Br  0.10528301  0.11590791  0.45373509    -0.00700
C641        C  0.34736632  0.09055126  0.15770169    -0.01800
C642        C  0.31731891  0.09202376  0.18262640     0.07800
C643        C  0.28876588  0.06553633  0.17998367    -0.02000
C644        C  0.29051961  0.03740815  0.15291505    -0.02000
C645        C  0.32011130  0.03643520  0.12686661     0.08000
C646        C  0.34858328  0.06338117  0.12962680    -0.02200
Br647      Br  0.38894897  0.06512688  0.09444355    -0.00700
Br648      Br  0.38758638  0.12551948  0.16268896    -0.00800
Br649      Br  0.25276090  0.99945500  0.15375040    -0.00700
Br650      Br  0.24615138  0.06859465  0.21255311    -0.00700
C651        C  0.10886035  0.25831391  0.15655971    -0.01800
C652        C  0.11746295  0.29021455  0.17717674     0.07800
C653        C  0.09791901  0.32326143  0.17070657    -0.02000
C654        C  0.06993848  0.32480272  0.14343925    -0.02000
C655        C  0.06086843  0.29268943  0.12206467     0.08000
C656        C  0.08055882  0.25909713  0.12965001    -0.02200
Br657      Br  0.07014663  0.21280577  0.10445887    -0.00700
Br658      Br  0.13604957  0.21296311  0.16590887    -0.00800
Br659      Br  0.04415061  0.37155923  0.13777246    -0.00700
Br660      Br  0.11030094  0.36681418  0.19937152    -0.00700
C661        C  0.81508163  0.39048859  0.42075292    -0.01800
C662        C  0.83848230  0.38471757  0.45143587     0.07800
C663        C  0.86070341  0.35251683  0.45256412    -0.02000
C664        C  0.85822532  0.32568553  0.42412541    -0.02000
C665        C  0.83135253  0.32917582  0.39580501     0.08000
C666        C  0.81005455  0.36228954  0.39410342    -0.02200
Br667      Br  0.77162968  0.36896083  0.35749678    -0.00700
Br668      Br  0.79145427  0.43819458  0.41408474    -0.00800
Br669      Br  0.89308480  0.28499256  0.42332584    -0.00700
Br670      Br  0.89321687  0.34386761  0.49403473    -0.00700
C671        C  0.60189227  0.08801878  0.41636097    -0.01800
C672        C  0.62256919  0.12080631  0.41238178     0.07800
C673        C  0.61571701  0.15092826  0.43622922    -0.02000
C674        C  0.58889068  0.14816023  0.46457159    -0.02000
C675        C  0.56688433  0.11554521  0.46828064     0.08000
C676        C  0.57393508  0.08534719  0.44372426    -0.02200
Br677      Br  0.54509169  0.04018818  0.44530451    -0.00700
Br678      Br  0.61230774  0.04651841  0.38400981    -0.00800
Br679      Br  0.58476045  0.18944363  0.49866422    -0.00700
Br680      Br  0.64218236  0.19702888  0.42877875    -0.00700
C681        C  0.61296901  0.35106298  0.24192991    -0.01800
C682        C  0.61632427  0.32561118  0.21241454     0.07800
C683        C  0.58972220  0.32587202  0.18391457    -0.02000
C684        C  0.56048845  0.35186212  0.18436603    -0.02000
C685        C  0.55796746  0.37887719  0.21296539     0.08000
C686        C  0.58413778  0.37757775  0.24227184    -0.02200
Br687      Br  0.58163177  0.41166745  0.28349729    -0.00700
Br688      Br  0.64698244  0.34836607  0.28316616    -0.00800
Br689      Br  0.52252971  0.34765926  0.14684731    -0.00700
Br690      Br  0.59347918  0.29050129  0.14375182    -0.00700
C691        C  0.66822031  0.07057104  0.13054176    -0.01800
C692        C  0.64100256  0.04241855  0.13210785     0.07800
C693        C  0.61464403  0.04285791  0.16118363    -0.02000
C694        C  0.61460369  0.07191437  0.18739293    -0.02000
C695        C  0.64257153  0.09926134  0.18648950     0.08000
C696        C  0.66996380  0.09780688  0.15844094    -0.02200
Br697      Br  0.71158048  0.13156592  0.15916672    -0.00700
Br698      Br  0.70221148  0.07364586  0.08908195    -0.00800
Br699      Br  0.57534726  0.07480964  0.22380960    -0.00700
Br700      Br  0.58002437  0.00246930  0.16696422    -0.00700
C701        C  0.84925203  0.07549314  0.41128720    -0.01800
C702        C  0.84769286  0.10084416  0.38152533     0.07800
C703        C  0.87381295  0.09778268  0.35246423    -0.02000
C704        C  0.90194461  0.07062397  0.35378398    -0.02000
C705        C  0.90243771  0.04372240  0.38250587     0.08000
C706        C  0.87600385  0.04683352  0.41161985    -0.02200
Br707      Br  0.87484573  0.01172403  0.45205788    -0.00700
Br708      Br  0.81466005  0.08016608  0.45207070    -0.00800
Br709      Br  0.94133587  0.07297312  0.31737041    -0.00700
Br710      Br  0.86955835  0.12894470  0.30903650    -0.00700
C711        C  0.86979064  0.32227023  0.17245992    -0.01800
C712        C  0.84222432  0.29446100  0.17194810     0.07800
C713        C  0.84237993  0.26811572  0.14289304    -0.02000
C714        C  0.86886335  0.27038521  0.11411526    -0.02000
C715        C  0.89745340  0.29719765  0.11546125     0.08000
C716        C  0.89776164  0.32303848  0.14503392    -0.02200
Br717      Br  0.93767187  0.35834152  0.14998201    -0.00700
Br718      Br  0.86918200  0.36002666  0.21054744    -0.00800
Br719      Br  0.86432516  0.23759686  0.07193654    -0.00700
Br720      Br  0.80823429  0.22684179  0.14367059    -0.00700
C721        C  0.58618894  0.81086924  0.40367487    -0.01800
C722        C  0.61564465  0.78497404  0.40484853     0.07800
C723        C  0.61685368  0.75903979  0.43430316    -0.02000
C724        C  0.59058122  0.76074223  0.46336623    -0.02000
C725        C  0.56076422  0.78612998  0.46168694     0.08000
C726        C  0.55811983  0.81026468  0.43095038    -0.02200
Br727      Br  0.51454640  0.84074502  0.42435151    -0.00700
Br728      Br  0.58456253  0.84849579  0.36555950    -0.00800
Br729      Br  0.59687429  0.72933345  0.50627596    -0.00700
Br730      Br  0.65269633  0.71916725  0.43383526    -0.00700
C731        C  0.86547665  0.55226724  0.43391202    -0.01800
C732        C  0.83495032  0.54534470  0.45805089     0.07800
C733        C  0.80191749  0.56627629  0.45286333    -0.02000
C734        C  0.79858499  0.59090518  0.42278682    -0.02000
C735        C  0.82901371  0.59791594  0.39939455     0.08000
C736        C  0.86255058  0.57893149  0.40525386    -0.02200
Br737      Br  0.90446074  0.58972461  0.37367368    -0.00700
Br738      Br  0.91135607  0.52501899  0.43820836    -0.00800
Br739      Br  0.75126947  0.61388359  0.41229836    -0.00700
Br740      Br  0.76120754  0.56428446  0.48788476    -0.00700
C741        C  0.59360550  0.58989916  0.16945500    -0.01800
C742        C  0.61846358  0.59330623  0.19918933     0.07800
C743        C  0.61376122  0.57100819  0.23090297    -0.02000
C744        C  0.58544230  0.54418934  0.23230769    -0.02000
C745        C  0.55994787  0.54052025  0.20254213     0.08000
C746        C  0.56425357  0.56410827  0.17116626    -0.02200
Br747      Br  0.52943732  0.56350856  0.13062813    -0.00700
Br748      Br  0.59995007  0.62088977  0.12616219    -0.00800
Br749      Br  0.58380825  0.51211573  0.27518784    -0.00700
Br750      Br  0.64496704  0.57884533  0.27378416    -0.00700
C751        C  0.89250485  0.57503026  0.14275106    -0.01800
C752        C  0.89656770  0.60404217  0.11643543     0.07800
C753        C  0.87313002  0.63554851  0.11922287    -0.02000
C754        C  0.84808714  0.63898332  0.14896391    -0.02000
C755        C  0.84308061  0.60948134  0.17406851     0.08000
C756        C  0.86513616  0.57740448  0.17073997    -0.02200
Br757      Br  0.85762873  0.53662550  0.20460481    -0.00700
Br758      Br  0.92531872  0.53266043  0.14254190    -0.00800
Br759      Br  0.82226593  0.68542680  0.15674812    -0.00700
Br760      Br  0.87265572  0.67349570  0.08128495    -0.00700
C761        C  0.86789850  0.82550454  0.34374167    -0.01800
C762        C  0.84154293  0.82140245  0.37241425     0.07800
C763        C  0.84349077  0.84461826  0.40376082    -0.02000
C764        C  0.87013011  0.87319891  0.40554006    -0.02000
C765        C  0.89726381  0.87690456  0.37724004     0.08000
C766        C  0.89662879  0.85169219  0.34698266    -0.02200
Br767      Br  0.93651745  0.85006852  0.31097842    -0.00700
Br768      Br  0.86410161  0.79606021  0.29906009    -0.00800
Br769      Br  0.86752456  0.90778018  0.44629198    -0.00700
Br770      Br  0.81076962  0.83585111  0.44530896    -0.00700
C771        C  0.60931864  0.82258168  0.15419569    -0.01800
C772        C  0.63867762  0.81978342  0.17971437     0.07800
C773        C  0.66722775  0.84645581  0.17898163    -0.02000
C774        C  0.66605464  0.87613780  0.15363615    -0.02000
C775        C  0.63737180  0.87843456  0.12696979     0.08000
C776        C  0.60894339  0.85127976  0.12748643    -0.02200
Br777      Br  0.57021675  0.85151524  0.09066972    -0.00700
Br778      Br  0.56912047  0.78735708  0.15639834    -0.00800
Br779      Br  0.70322806  0.91453983  0.15763566    -0.00700
Br780      Br  0.70935604  0.84148224  0.21164847    -0.00700
C781        C  0.10908678  0.58882694  0.43017116    -0.01800
C782        C  0.13767533  0.58940294  0.40337926     0.07800
C783        C  0.16620638  0.56264053  0.40521032    -0.02000
C784        C  0.16535415  0.53467319  0.43249827    -0.02000
C785        C  0.13686099  0.53414194  0.45964579     0.08000
C786        C  0.10906433  0.56189751  0.45859553    -0.02200
Br787      Br  0.07214434  0.56523773  0.49739881    -0.00700
Br788      Br  0.06939523  0.62470940  0.42767883    -0.00800
Br789      Br  0.20304187  0.49647368  0.43107181    -0.00700
Br790      Br  0.20805419  0.56538237  0.37165343    -0.00700
C791        C  0.36918070  0.76080523  0.40815300    -0.01800
C792        C  0.34156257  0.78865402  0.40753986     0.07800
C793        C  0.34235197  0.81690559  0.43468085    -0.02000
C794        C  0.37002423  0.81703717  0.46231291    -0.02000
C795        C  0.39839281  0.78981546  0.46222628     0.08000
C796        C  0.39795027  0.76200179  0.43453345    -0.02200
Br797      Br  0.43775768  0.72628081  0.43098421    -0.00700
Br798      Br  0.36665666  0.71936583  0.37420985    -0.00800
Br799      Br  0.36724050  0.85355772  0.50148133    -0.00700
Br800      Br  0.30597740  0.85622633  0.43360959    -0.00700
C801        C  0.38992148  0.56592815  0.17282644    -0.01800
C802        C  0.39264049  0.53951027  0.20183748     0.07800
C803        C  0.36508802  0.53946064  0.22996638    -0.02000
C804        C  0.33705861  0.56674131  0.23045396    -0.02000
C805        C  0.33460169  0.59312573  0.20163556     0.08000
C806        C  0.36066583  0.59201953  0.17244337    -0.02200
Br807      Br  0.35562899  0.62588573  0.13126965    -0.00700
Br808      Br  0.42682749  0.56821118  0.13409933    -0.00800
Br809      Br  0.30309587  0.56886588  0.27200019    -0.00700
Br810      Br  0.36362514  0.50069742  0.26704655    -0.00700
C811        C  0.28348962  0.84096673  0.17399154    -0.01800
C812        C  0.31508218  0.81990452  0.18249928     0.07800
C813        C  0.34839667  0.82669428  0.16347165    -0.02000
C814        C  0.35005037  0.85370456  0.13506336    -0.02000
C815        C  0.31823373  0.87555384  0.12623997     0.08000
C816        C  0.28513849  0.86932843  0.14710759    -0.02200
Br817      Br  0.24145425  0.89994077  0.14169378    -0.00700
Br818      Br  0.23718085  0.82983245  0.19879088    -0.00800
Br819      Br  0.39645856  0.85863139  0.10852315    -0.00700
Br820      Br  0.39199282  0.79875854  0.17701815    -0.00700
C821        C  0.11320174  0.84329777  0.34902546    -0.01800
C822        C  0.11427990  0.81691677  0.37795624     0.07800
C823        C  0.08693767  0.81822133  0.40595463    -0.02000
C824        C  0.05867113  0.84536609  0.40499043    -0.02000
C825        C  0.05804807  0.87266518  0.37656007     0.08000
C826        C  0.08563128  0.87113354  0.34847355    -0.02200
Br827      Br  0.08730255  0.90754606  0.30926626    -0.00700
Br828      Br  0.14888386  0.84065553  0.30894448    -0.00800
Br829      Br  0.01970137  0.84288989  0.44185723    -0.00700
Br830      Br  0.08887526  0.78331839  0.44656964    -0.00700
C831        C  0.07877504  0.62858858  0.17793907    -0.01800
C832        C  0.10956828  0.60435700  0.17930959     0.07800
C833        C  0.11209822  0.57521656  0.15309346    -0.02000
C834        C  0.08569571  0.57208360  0.12432380    -0.02000
C835        C  0.05516561  0.59664325  0.12294816     0.08000
C836        C  0.05088493  0.62339330  0.15133075    -0.02200
Br837      Br  0.00578231  0.65228857  0.15519636    -0.00700
Br838      Br  0.07581217  0.67149926  0.21003864    -0.00800
Br839      Br  0.09294558  0.53556780  0.08583947    -0.00700
Br840      Br  0.15139372  0.53910261  0.15686515    -0.00700
C841        C  0.59217558  0.76617617  0.67945306    -0.01800
C842        C  0.61688363  0.79642876  0.68103375     0.07800
C843        C  0.61317999  0.82558207  0.65536906    -0.02000
C844        C  0.58606435  0.82398970  0.62731778    -0.02000
C845        C  0.56073865  0.79383995  0.62567129     0.08000
C846        C  0.56376066  0.76523095  0.65261679    -0.02200
Br847      Br  0.52822738  0.72520704  0.65489759    -0.00700
Br848      Br  0.59802469  0.72513353  0.71349305    -0.00800
Br849      Br  0.58604437  0.86277500  0.59027366    -0.00700
Br850      Br  0.64482449  0.86857171  0.65952331    -0.00700
C851        C  0.62026870  0.57676743  0.90092654    -0.01800
C852        C  0.62036919  0.60386213  0.87268035     0.07800
C853        C  0.59404355  0.60154305  0.84391449    -0.02000
C854        C  0.56647386  0.57384254  0.84460236    -0.02000
C855        C  0.56609155  0.54676299  0.87309035     0.08000
C856        C  0.59387945  0.54794709  0.90070430    -0.02200
Br857      Br  0.59790134  0.50888684  0.93720929    -0.00700
Br858      Br  0.65601942  0.57935275  0.94060447    -0.00800
Br859      Br  0.52846070  0.57471840  0.80699536    -0.00700
Br860      Br  0.59696525  0.63499859  0.80209531    -0.00700
C861        C  0.79909623  0.56643213  0.67513646    -0.01800
C862        C  0.82439852  0.59632939  0.67611501     0.07800
C863        C  0.85361268  0.59746271  0.64999910    -0.02000
C864        C  0.85672332  0.56982295  0.62237741    -0.02000
C865        C  0.83138255  0.53985933  0.62136444     0.08000
C866        C  0.80322504  0.53790465  0.64868541    -0.02200
Br867      Br  0.77108304  0.49512910  0.65157104    -0.00700
Br868      Br  0.75703684  0.56527147  0.70851174    -0.00800
Br869      Br  0.89476219  0.57471202  0.58490755    -0.00700
Br870      Br  0.89009149  0.63657441  0.65247478    -0.00700
C871        C  0.84168118  0.59313269  0.92678408    -0.01800
C872        C  0.84497564  0.62102859  0.89942606     0.07800
C873        C  0.87583453  0.64511930  0.90029299    -0.02000
C874        C  0.90390691  0.64010950  0.92685895    -0.02000
C875        C  0.90029789  0.61273361  0.95471941     0.08000
C876        C  0.86841845  0.58997942  0.95506923    -0.02200
Br877      Br  0.85933376  0.55661249  0.99600408    -0.00700
Br878      Br  0.80112901  0.55825909  0.92514749    -0.00800
Br879      Br  0.94785256  0.67039028  0.92374497    -0.00700
Br880      Br  0.87886286  0.68695725  0.86679117    -0.00700
C881        C  0.61787319  0.88700301  0.93423284    -0.01800
C882        C  0.64247664  0.88539638  0.96463237     0.07800
C883        C  0.66923601  0.85676201  0.96585595    -0.02000
C884        C  0.67286259  0.83163655  0.93617197    -0.02000
C885        C  0.64703488  0.83186215  0.90682512     0.08000
C886        C  0.61932287  0.85964276  0.90618257    -0.02200
Br887      Br  0.58246798  0.85993445  0.86749806    -0.00700
Br888      Br  0.58321272  0.92759306  0.92963297    -0.00800
Br889      Br  0.71534701  0.79896077  0.93465146    -0.00700
Br890      Br  0.69937562  0.84959078  0.00948024    -0.00700
C891        C  0.87240084  0.87863148  0.67277350    -0.01800
C892        C  0.90247827  0.87745586  0.69772631     0.07800
C893        C  0.90466528  0.84806915  0.72362160    -0.02000
C894        C  0.87643200  0.82109229  0.72548191    -0.02000
C895        C  0.84651911  0.82207526  0.70020790     0.08000
C896        C  0.84523419  0.85056088  0.67334101    -0.02200
Br897      Br  0.80694589  0.85053435  0.63606180    -0.00700
Br898      Br  0.86655560  0.91998124  0.63920373    -0.00800
Br899      Br  0.87832939  0.78401015  0.76419087    -0.00700
Br900      Br  0.94715334  0.84347258  0.75583424    -0.00700
C901        C  0.33957851  0.77044939  0.64802976    -0.01800
C902        C  0.33950831  0.79753704  0.67647928     0.07800
C903        C  0.36805326  0.82430966  0.67730819    -0.02000
C904        C  0.39728079  0.82280129  0.65127529    -0.02000
C905        C  0.39675380  0.79632068  0.62235020     0.08000
C906        C  0.36698417  0.77106122  0.62020103    -0.02200
Br907      Br  0.36212108  0.73843548  0.57792966    -0.00700
Br908      Br  0.30396164  0.73034893  0.64804354    -0.00800
Br909      Br  0.43908898  0.85566396  0.65703267    -0.00700
Br910      Br  0.36668187  0.86399763  0.71329046    -0.00700
C911        C  0.11105343  0.56869418  0.67582219    -0.01800
C912        C  0.14076293  0.59407224  0.67592886     0.07800
C913        C  0.16813974  0.59159222  0.64800574    -0.02000
C914        C  0.16565326  0.56433960  0.62006234    -0.02000
C915        C  0.13672938  0.53769171  0.62066640     0.08000
C916        C  0.10901168  0.54062430  0.64852138    -0.02200
Br917      Br  0.06833271  0.50600002  0.65074603    -0.00700
Br918      Br  0.07268835  0.57267933  0.71311918    -0.00800
Br919      Br  0.20109509  0.56585985  0.57969881    -0.00700
Br920      Br  0.21061640  0.62425442  0.64902582    -0.00700
C921        C  0.36609685  0.59261611  0.91028402    -0.01800
C922        C  0.34584908  0.59999709  0.87796767     0.07800
C923        C  0.35465908  0.58124938  0.84492790    -0.02000
C924        C  0.38221048  0.55351260  0.84444478    -0.02000
C925        C  0.40293957  0.54539814  0.87705496     0.08000
C926        C  0.39471547  0.56587128  0.90999290    -0.02200
Br927      Br  0.42245449  0.55937470  0.95537075    -0.00700
Br928      Br  0.35424820  0.61956385  0.95511863    -0.00800
Br929      Br  0.38880728  0.52626217  0.79862939    -0.00700
Br930      Br  0.32930337  0.59481670  0.79969575    -0.00700
C931        C  0.11174114  0.57578335  0.91820283    -0.01800
C932        C  0.11890858  0.60971502  0.90044747     0.07800
C933        C  0.09884413  0.64148982  0.91074229    -0.02000
C934        C  0.07121256  0.63956098  0.93834653    -0.02000
C935        C  0.06339044  0.60529259  0.95673866     0.08000
C936        C  0.08473752  0.57349176  0.94663454    -0.02200
Br937      Br  0.07996798  0.52676848  0.97252732    -0.00700
Br938      Br  0.13906136  0.53230284  0.90281564    -0.00800
Br939      Br  0.04523316  0.68535985  0.94941112    -0.00700
Br940      Br  0.11010555  0.68839341  0.88702980    -0.00700
C941        C  0.11103229  0.84324852  0.72749178    -0.01800
C942        C  0.11579844  0.81947905  0.69687405     0.07800
C943        C  0.09506109  0.82545672  0.66448176    -0.02000
C944        C  0.06856023  0.85433051  0.66311935    -0.02000
C945        C  0.06399010  0.87877338  0.69382357     0.08000
C946        C  0.08686042  0.87374208  0.72536094    -0.02200
Br947      Br  0.08848665  0.90994339  0.76497311    -0.00700
Br948      Br  0.13700840  0.83325158  0.77327845    -0.00800
Br949      Br  0.03850764  0.85872284  0.61909976    -0.00700
Br950      Br  0.10373468  0.79431941  0.62175566    -0.00700
C951        C  0.28589424  0.84967095  0.90695991    -0.01800
C952        C  0.31496225  0.82400210  0.90218230     0.07800
C953        C  0.34576495  0.82530687  0.92598310    -0.02000
C954        C  0.34726468  0.85151643  0.95501631    -0.02000
C955        C  0.31839097  0.87795600  0.95970676     0.08000
C956        C  0.28785757  0.87696275  0.93486854    -0.02200
Br957      Br  0.24838586  0.91322985  0.93711124    -0.00700
Br958      Br  0.24207665  0.84629198  0.87635429    -0.00800
Br959      Br  0.38825559  0.84860806  0.98924397    -0.00700
Br960      Br  0.38640973  0.79117086  0.91832289    -0.00700
C961        C  0.17198471  0.34793492  0.62571997    -0.01800
C962        C  0.14082301  0.37202858  0.62336564     0.07800
C963        C  0.11177189  0.36781393  0.64979607    -0.02000
C964        C  0.11360477  0.33975499  0.67704947    -0.02000
C965        C  0.14518259  0.31706410  0.67984418     0.08000
C966        C  0.17460406  0.32173444  0.65456530    -0.02200
Br967      Br  0.21965271  0.29319798  0.66055570    -0.00700
Br968      Br  0.21110538  0.34832403  0.58892120    -0.00800
Br969      Br  0.07239763  0.33168022  0.71039689    -0.00700
Br970      Br  0.06994459  0.40124634  0.65119414    -0.00700
C971        C  0.36983675  0.08285807  0.68224255    -0.01800
C972        C  0.34529257  0.11314405  0.68440947     0.07800
C973        C  0.34776304  0.14188214  0.65810095    -0.02000
C974        C  0.37329720  0.13953077  0.62867114    -0.02000
C975        C  0.39917108  0.10988746  0.62692212     0.08000
C976        C  0.39720180  0.08152038  0.65421162    -0.02200
Br977      Br  0.43272214  0.04145906  0.65541307    -0.00700
Br978      Br  0.36580618  0.04310530  0.71792822    -0.00800
Br979      Br  0.37035556  0.17652456  0.59006562    -0.00700
Br980      Br  0.31773255  0.18607545  0.66377880    -0.00700
C981        C  0.37874820  0.32615783  0.85063514    -0.01800
C982        C  0.35243153  0.32405957  0.87963020     0.07800
C983        C  0.35390418  0.35010038  0.90876494    -0.02000
C984        C  0.37998152  0.37924707  0.90789976    -0.02000
C985        C  0.40678754  0.38111653  0.87914021     0.08000
C986        C  0.40659334  0.35354475  0.85115154    -0.02200
Br987      Br  0.44566874  0.35126376  0.81441365    -0.00700
Br988      Br  0.37582660  0.29260764  0.80891090    -0.00800
Br989      Br  0.37682602  0.41762997  0.94519232    -0.00700
Br990      Br  0.32098711  0.34495543  0.95075635    -0.00700
C991        C  0.35448249  0.09288157  0.93315786    -0.01800
C992        C  0.32378535  0.09837385  0.90997140     0.07800
C993        C  0.29221241  0.07589491  0.91423844    -0.02000
C994        C  0.29182213  0.04682591  0.94033437    -0.02000
C995        C  0.32266353  0.04083989  0.96409010     0.08000
C996        C  0.35388813  0.06477156  0.96043452    -0.02200
Br997      Br  0.39599174  0.06134669  0.99316420    -0.00700
Br998      Br  0.39773699  0.12382705  0.92693356    -0.00800
Br999      Br  0.24876451  0.01501029  0.94108329    -0.00700
Br1000     Br  0.24849221  0.08602486  0.88491789    -0.00700
C1001       C  0.12087789  0.06826295  0.67364605    -0.01800
C1002       C  0.12094124  0.09457959  0.70265650     0.07800
C1003       C  0.09183220  0.09423893  0.72896199    -0.02000
C1004       C  0.06225365  0.06911627  0.72533447    -0.02000
C1005       C  0.06300169  0.04153852  0.69747927     0.08000
C1006       C  0.09269902  0.04114775  0.67172315    -0.02200
Br1007     Br  0.09649862  0.00222597  0.63509807    -0.00700
Br1008     Br  0.15899774  0.06972844  0.63600407    -0.00800
Br1009     Br  0.01968050  0.07433892  0.75757294    -0.00700
Br1010     Br  0.09347048  0.12631874  0.77193920    -0.00700
C1011       C  0.09981096  0.32558328  0.90745901    -0.01800
C1012       C  0.12540090  0.29606215  0.90627662     0.07800
C1013       C  0.12218386  0.26685974  0.93215399    -0.02000
C1014       C  0.09424885  0.26765260  0.95957994    -0.02000
C1015       C  0.06753626  0.29648797  0.95997118     0.08000
C1016       C  0.07048848  0.32540315  0.93341802    -0.02200
Br1017     Br  0.03349541  0.36411482  0.93041110    -0.00700
Br1018     Br  0.10546883  0.36691246  0.87381569    -0.00800
Br1019     Br  0.09459749  0.22996612  0.99769880    -0.00700
Br1020     Br  0.15489832  0.22447377  0.92895308    -0.00700
C1021       C  0.61025245  0.14682117  0.66488692    -0.01800
C1022       C  0.61637205  0.11592790  0.68786534     0.07800
C1023       C  0.59465875  0.08390192  0.68339369    -0.02000
C1024       C  0.56721946  0.08241072  0.65555230    -0.02000
C1025       C  0.56174849  0.11300006  0.63111611     0.08000
C1026       C  0.58403746  0.14520165  0.63612596    -0.02200
Br1027     Br  0.58144363  0.18741003  0.60310002    -0.00700
Br1028     Br  0.63712200  0.19239540  0.67400746    -0.00800
Br1029     Br  0.53696999  0.03832417  0.65290303    -0.00700
Br1030     Br  0.60294916  0.04189937  0.71559723    -0.00700
C1031       C  0.85672117  0.34184194  0.66924000    -0.01800
C1032       C  0.82517529  0.31868453  0.67023021     0.07800
C1033       C  0.79737626  0.32376338  0.64331738    -0.02000
C1034       C  0.80163401  0.35048666  0.61499075     0.06400
C1035       C  0.83220026  0.37528285  0.61504038     0.08000
C1036       C  0.85976499  0.37061091  0.64264019    -0.02200
Br1037     Br  0.90089481  0.40465171  0.64627205    -0.00700
Br1038     Br  0.89618848  0.33391046  0.70436352    -0.00800
Br1039     Br  0.76595617  0.35084166  0.57510682    -0.00700
Br1040     Br  0.75164907  0.29613497  0.64684745    -0.00700
C1041       C  0.59656230  0.32959455  0.90267294    -0.01800
C1042       C  0.62332518  0.32887790  0.87400236     0.07800
C1043       C  0.62227956  0.35647555  0.84612148    -0.02000
C1044       C  0.59567087  0.38507270  0.84771626    -0.02000
C1045       C  0.56790847  0.38481791  0.87546088     0.08000
C1046       C  0.56833604  0.35662482  0.90272936    -0.02200
Br1047     Br  0.52917336  0.35321239  0.93926253    -0.00700
Br1048     Br  0.59905607  0.29431841  0.94295613    -0.00800
Br1049     Br  0.59904544  0.42573918  0.81289942    -0.00700
Br1050     Br  0.65564989  0.35427298  0.80410714    -0.00700
C1051       C  0.87526164  0.26756234  0.89958435    -0.01800
C1052       C  0.85039354  0.29744462  0.89568796     0.07800
C1053       C  0.85407699  0.32882744  0.91855947    -0.02000
C1054       C  0.88119599  0.32973303  0.94660246    -0.02000
C1055       C  0.90590841  0.29938416  0.95133383     0.08000
C1056       C  0.90354401  0.26894602  0.92639349    -0.02200
Br1057     Br  0.94019469  0.22973104  0.92643825    -0.00700
Br1058     Br  0.86962980  0.22375086  0.86914497    -0.00800
Br1059     Br  0.88251825  0.37258835  0.97877727    -0.00700
Br1060     Br  0.82200227  0.37106776  0.91077072    -0.00700
C1061       C  0.87196876  0.03727841  0.73019908    -0.01800
C1062       C  0.89849325  0.03850340  0.70118336     0.07800
C1063       C  0.89543158  0.06651596  0.67384236    -0.02000
C1064       C  0.86629475  0.09255479  0.67541142    -0.02000
C1065       C  0.84149465  0.09291225  0.70574264     0.08000
C1066       C  0.84466457  0.06515303  0.73331956    -0.02200
Br1067     Br  0.81294801  0.06582266  0.77667527    -0.00700
Br1068     Br  0.87089378  0.99611164  0.76462218    -0.00800
Br1069     Br  0.85931762  0.12665561  0.63468791    -0.00700
Br1070     Br  0.93201747  0.07118375  0.63489501    -0.00700
C1071       C  0.61805934  0.10295840  0.94122939    -0.01800
C1072       C  0.64729357  0.10368216  0.91517370     0.07800
C1073       C  0.67680643  0.07829469  0.91888959    -0.02000
C1074       C  0.67572260  0.05047479  0.94635353    -0.02000
C1075       C  0.64573710  0.04871870  0.97185526     0.08000
C1076       C  0.61765944  0.07620623  0.96988201    -0.02200
Br1077     Br  0.57964430  0.07928940  0.00763671    -0.00700
Br1078     Br  0.57792882  0.13816370  0.93721604    -0.00800
Br1079     Br  0.71516302  0.01412214  0.94698914    -0.00700
Br1080     Br  0.71990934  0.08265090  0.88716470    -0.00700
loop_ 
_geom_bond_atom_site_label_1 
_geom_bond_atom_site_label_2 
_geom_bond_distance 
_geom_bond_site_symmetry_2 
_ccdc_geom_bond_type 
C1            C2   1.413       .  A
C1            C6   1.410       .  A
C1         C1072   1.493       .  S
C2            C3   1.404       .  A
C2            H7   1.084       .  S
C3            C4   1.397       .  A
C3           C48   1.476       .  S
C4            C5   1.396       .  A
C4            H8   1.085       .  S
C5            C6   1.404       .  A
C5           C30   1.472       .  S
C6            H9   1.084       .  S
C10          C11   1.413       .  A
C10          C15   1.409       .  A
C10        C1065   1.495       .  S
C11          C12   1.405       .  A
C11          H16   1.083       .  S
C12          C13   1.405       .  A
C12          C39   1.483       .  S
C13          C14   1.403       .  A
C13          H17   1.085       .  S
C14          C15   1.401       .  A
C14          C50   1.478       .  S
C15          H18   1.083       .  S
C19          C20   1.408       .  A
C19          C24   1.408       .  A
C19        C1052   1.485       .  S
C20          C21   1.402       .  A
C20          H25   1.084       .  S
C21          C22   1.401       .  A
C21          C41   1.473       .  S
C22          C23   1.400       .  A
C22          H26   1.085       .  S
C23          C24   1.401       .  A
C23          C32   1.473       .  S
C24          H27   1.084       .  S
C28          C29   1.410       .  A
C28          C33   1.410       .  A
C28        C1042   1.492       .  S
C29          C30   1.402       .  A
C29          H34   1.083       .  S
C30          C31   1.399       .  A
C31          C32   1.399       .  A
C31          H35   1.085       .  S
C32          C33   1.402       .  A
C33          H36   1.083       .  S
C37          C38   1.419       .  A
C37          C42   1.412       .  A
C37        C1032   1.501       .  S
C38          C39   1.411       .  A
C38          H43   1.083       .  S
C39          C40   1.395       .  A
C40          C41   1.396       .  A
C40          H44   1.086       .  S
C41          C42   1.403       .  A
C42          H45   1.084       .  S
C46          C47   1.409       .  A
C46          C51   1.410       .  A
C46        C1022   1.486       .  S
C47          C48   1.403       .  A
C47          H52   1.083       .  S
C48          C49   1.403       .  A
C49          C50   1.400       .  A
C49          H53   1.085       .  S
C50          C51   1.401       .  A
C51          H54   1.085       .  S
C55          C56   1.409       .  A
C55          C60   1.410       .  A
C55        C1012   1.490       .  S
C56          C57   1.402       .  A
C56          H61   1.083       .  S
C57          C58   1.400       .  A
C57         C104   1.475       .  S
C58          C59   1.401       .  A
C58          H62   1.085       .  S
C59          C60   1.404       .  A
C59          C84   1.476       .  S
C60          H63   1.084       .  S
C64          C65   1.411       .  A
C64          C69   1.413       .  A
C64        C1002   1.492       .  S
C65          C66   1.401       .  A
C65          H70   1.084       .  S
C66          C67   1.398       .  A
C66         C102   1.476       .  S
C67          C68   1.398       .  A
C67          H71   1.085       .  S
C68          C69   1.405       .  A
C68          C95   1.477       .  S
C69          H72   1.083       .  S
C73          C74   1.409       .  A
C73          C78   1.407       .  A
C73         C992   1.485       .  S
C74          C75   1.404       .  A
C74          H79   1.084       .  S
C75          C76   1.402       .  A
C75          C86   1.475       .  S
C76          C77   1.399       .  A
C76          H80   1.086       .  S
C77          C78   1.399       .  A
C77          C93   1.474       .  S
C78          H81   1.083       .  S
C82          C83   1.412       .  A
C82          C87   1.411       .  A
C82         C982   1.492       .  S
C83          C84   1.404       .  A
C83          H88   1.083       .  S
C84          C85   1.399       .  A
C85          C86   1.399       .  A
C85          H89   1.085       .  S
C86          C87   1.403       .  A
C87          H90   1.084       .  S
C91          C92   1.407       .  A
C91          C96   1.409       .  A
C91         C972   1.484       .  S
C92          C93   1.401       .  A
C92          H97   1.083       .  S
C93          C94   1.401       .  A
C94          C95   1.402       .  A
C94          H98   1.085       .  S
C95          C96   1.401       .  A
C96          H99   1.085       .  S
C100        C101   1.409       .  A
C100        C105   1.409       .  A
C100        C965   1.486       .  S
C101        C102   1.401       .  A
C101        H106   1.084       .  S
C102        C103   1.401       .  A
C103        C104   1.399       .  A
C103        H107   1.085       .  S
C104        C105   1.403       .  A
C105        H108   1.083       .  S
C109        C110   1.410       .  A
C109        C114   1.407       .  A
C109        C952   1.487       .  S
C110        C111   1.404       .  A
C110        H115   1.083       .  S
C111        C112   1.399       .  A
C111        C158   1.474       .  S
C112        C113   1.399       .  A
C112        H116   1.086       .  S
C113        C114   1.400       .  A
C113        C138   1.471       .  S
C114        H117   1.084       .  S
C118        C119   1.407       .  A
C118        C123   1.412       .  A
C118        C942   1.484       .  S
C119        C120   1.397       .  A
C119        H124   1.084       .  S
C120        C121   1.400       .  A
C120        C156   1.474       .  S
C121        C122   1.401       .  A
C121        H125   1.086       .  S
C122        C123   1.407       .  A
C122        C147   1.481       .  S
C123        H126   1.083       .  S
C127        C128   1.408       .  A
C127        C132   1.410       .  A
C127        C932   1.485       .  S
C128        C129   1.403       .  A
C128        H133   1.084       .  S
C129        C130   1.401       .  A
C129        C140   1.475       .  S
C130        C131   1.399       .  A
C130        H134   1.085       .  S
C131        C132   1.404       .  A
C131        C149   1.478       .  S
C132        H135   1.083       .  S
C136        C137   1.407       .  A
C136        C141   1.409       .  A
C136        C922   1.484       .  S
C137        C138   1.402       .  A
C137        H142   1.083       .  S
C138        C139   1.399       .  A
C139        C140   1.400       .  A
C139        H143   1.084       .  S
C140        C141   1.403       .  A
C141        H144   1.084       .  S
C145        C146   1.412       .  A
C145        C150   1.410       .  A
C145        C912   1.493       .  S
C146        C147   1.404       .  A
C146        H151   1.084       .  S
C147        C148   1.403       .  A
C148        C149   1.402       .  A
C148        H152   1.085       .  S
C149        C150   1.402       .  A
C150        H153   1.084       .  S
C154        C155   1.410       .  A
C154        C159   1.411       .  A
C154        C902   1.492       .  S
C155        C156   1.400       .  A
C155        H160   1.084       .  S
C156        C157   1.399       .  A
C157        C158   1.398       .  A
C157        H161   1.085       .  S
C158        C159   1.403       .  A
C159        H162   1.083       .  S
C163        C164   1.410       .  A
C163        C168   1.412       .  A
C163        C895   1.495       .  S
C164        C165   1.403       .  A
C164        H169   1.083       .  S
C165        C166   1.401       .  A
C165        C192   1.476       .  S
C166        C167   1.399       .  A
C166        H170   1.084       .  S
C167        C168   1.404       .  A
C167        C210   1.476       .  S
C168        H171   1.083       .  S
C172        C173   1.415       .  A
C172        C177   1.412       .  A
C172        C885   1.496       .  S
C173        C174   1.403       .  A
C173        H178   1.083       .  S
C174        C175   1.397       .  A
C174        C201   1.477       .  S
C175        C176   1.398       .  A
C175        H179   1.086       .  S
C176        C177   1.403       .  A
C176        C212   1.473       .  S
C177        H180   1.084       .  S
C181        C182   1.413       .  A
C181        C186   1.411       .  A
C181        C872   1.493       .  S
C182        C183   1.403       .  A
C182        H187   1.083       .  S
C183        C184   1.400       .  A
C183        C194   1.477       .  S
C184        C185   1.396       .  A
C184        H188   1.085       .  S
C185        C186   1.402       .  A
C185        C203   1.473       .  S
C186        H189   1.084       .  S
C190        C191   1.413       .  A
C190        C195   1.412       .  A
C190        C862   1.493       .  S
C191        C192   1.403       .  A
C191        H196   1.083       .  S
C192        C193   1.397       .  A
C193        C194   1.398       .  A
C193        H197   1.086       .  S
C194        C195   1.402       .  A
C195        H198   1.084       .  S
C199        C200   1.412       .  A
C199        C204   1.407       .  A
C199        C852   1.491       .  S
C200        C201   1.405       .  A
C200        H205   1.083       .  S
C201        C202   1.402       .  A
C202        C203   1.399       .  A
C202        H206   1.084       .  S
C203        C204   1.400       .  A
C204        H207   1.084       .  S
C208        C209   1.410       .  A
C208        C213   1.408       .  A
C208        C842   1.492       .  S
C209        C210   1.405       .  A
C209        H214   1.084       .  S
C210        C211   1.400       .  A
C211        C212   1.401       .  A
C211        H215   1.085       .  S
C212        C213   1.404       .  A
C213        H216   1.084       .  S
C217        C218   1.414       .  A
C217        C222   1.414       .  A
C217        C832   1.498       .  S
C218        C219   1.404       .  A
C218        H223   1.083       .  S
C219        C220   1.399       .  A
C219        C266   1.481       .  S
C220        C221   1.399       .  A
C220        H224   1.085       .  S
C221        C222   1.406       .  A
C221        C248   1.481       .  S
C222        H225   1.084       .  S
C226        C227   1.412       .  A
C226        C231   1.411       .  A
C226        C822   1.496       .  S
C227        C228   1.405       .  A
C227        H232   1.083       .  S
C228        C229   1.401       .  A
C228        C255   1.478       .  S
C229        C230   1.400       .  A
C229        H233   1.084       .  S
C230        C231   1.404       .  A
C230        C264   1.477       .  S
C231        H234   1.084       .  S
C235        C236   1.409       .  A
C235        C240   1.410       .  A
C235        C812   1.487       .  S
C236        C237   1.404       .  A
C236        H241   1.084       .  S
C237        C238   1.401       .  A
C237        C246   1.479       .  S
C238        C239   1.403       .  A
C238        H242   1.085       .  S
C239        C240   1.404       .  A
C239        C257   1.480       .  S
C240        H243   1.083       .  S
C244        C245   1.410       .  A
C244        C249   1.411       .  A
C244        C805   1.493       .  S
C245        C246   1.403       .  A
C245        H250   1.084       .  S
C246        C247   1.402       .  A
C247        C248   1.404       .  A
C247        H251   1.084       .  S
C248        C249   1.405       .  A
C249        H252   1.084       .  S
C253        C254   1.413       .  A
C253        C258   1.414       .  A
C253        C792   1.498       .  S
C254        C255   1.405       .  A
C254        H259   1.083       .  S
C255        C256   1.399       .  A
C256        C257   1.399       .  A
C256        H260   1.085       .  S
C257        C258   1.405       .  A
C258        H261   1.084       .  S
C262        C263   1.409       .  A
C262        C267   1.412       .  A
C262        C782   1.492       .  S
C263        C264   1.402       .  A
C263        H268   1.084       .  S
C264        C265   1.400       .  A
C265        C266   1.404       .  A
C265        H269   1.085       .  S
C266        C267   1.404       .  A
C267        H270   1.084       .  S
C271        C272   1.410       .  A
C271        C276   1.410       .  A
C271        C772   1.490       .  S
C272        C273   1.404       .  A
C272        H277   1.084       .  S
C273        C274   1.398       .  A
C273        C300   1.472       .  S
C274        C275   1.396       .  A
C274        H278   1.086       .  S
C275        C276   1.402       .  A
C275        C320   1.472       .  S
C276        H279   1.084       .  S
C280        C281   1.412       .  A
C280        C285   1.408       .  A
C280        C762   1.489       .  S
C281        C282   1.406       .  A
C281        H286   1.085       .  S
C282        C283   1.402       .  A
C282        C318   1.479       .  S
C283        C284   1.400       .  A
C283        H287   1.085       .  S
C284        C285   1.399       .  A
C284        C309   1.475       .  S
C285        H288   1.083       .  S
C289        C290   1.409       .  A
C289        C294   1.409       .  A
C289        C755   1.485       .  S
C290        C291   1.400       .  A
C290        H295   1.083       .  S
C291        C292   1.401       .  A
C291        C302   1.477       .  S
C292        C293   1.403       .  A
C292        H296   1.084       .  S
C293        C294   1.404       .  A
C293        C311   1.478       .  S
C294        H297   1.084       .  S
C298        C299   1.405       .  A
C298        C303   1.409       .  A
C298        C742   1.485       .  S
C299        C300   1.399       .  A
C299        H304   1.085       .  S
C300        C301   1.402       .  A
C301        C302   1.403       .  A
C301        H305   1.084       .  S
C302        C303   1.402       .  A
C303        H306   1.085       .  S
C307        C308   1.410       .  A
C307        C312   1.409       .  A
C307        C735   1.487       .  S
C308        C309   1.401       .  A
C308        H313   1.081       .  S
C309        C310   1.398       .  A
C310        C311   1.401       .  A
C310        H314   1.086       .  S
C311        C312   1.405       .  A
C312        H315   1.086       .  S
C316        C317   1.415       .  A
C316        C321   1.410       .  A
C316        C722   1.498       .  S
C317        C318   1.407       .  A
C317        H322   1.083       .  S
C318        C319   1.398       .  A
C319        C320   1.398       .  A
C319        H323   1.086       .  S
C320        C321   1.400       .  A
C321        H324   1.085       .  S
C325        C326   1.415       .  A
C325        C330   1.411       .  A
C325        C712   1.496       .  S
C326        C327   1.406       .  A
C326        H331   1.083       .  S
C327        C328   1.401       .  A
C327        C354   1.482       .  S
C328        C329   1.400       .  A
C328        H332   1.085       .  S
C329        C330   1.400       .  A
C329        C372   1.477       .  S
C330        H333   1.084       .  S
C334        C335   1.409       .  A
C334        C339   1.413       .  A
C334        C702   1.495       .  S
C335        C336   1.402       .  A
C335        H340   1.083       .  S
C336        C337   1.400       .  A
C336        C363   1.472       .  S
C337        C338   1.399       .  A
C337        H341   1.085       .  S
C338        C339   1.406       .  A
C338        C374   1.479       .  S
C339        H342   1.083       .  S
C343        C344   1.410       .  A
C343        C348   1.408       .  A
C343        C695   1.489       .  S
C344        C345   1.402       .  A
C344        H349   1.084       .  S
C345        C346   1.397       .  A
C345        C356   1.472       .  S
C346        C347   1.398       .  A
C346        H350   1.086       .  S
C347        C348   1.401       .  A
C347        C365   1.470       .  S
C348        H351   1.083       .  S
C352        C353   1.415       .  A
C352        C357   1.407       .  A
C352        C682   1.490       .  S
C353        C354   1.408       .  A
C353        H358   1.083       .  S
C354        C355   1.401       .  A
C355        C356   1.399       .  A
C355        H359   1.085       .  S
C356        C357   1.398       .  A
C357        H360   1.084       .  S
C361        C362   1.409       .  A
C361        C366   1.408       .  A
C361        C672   1.485       .  S
C362        C363   1.403       .  A
C362        H367   1.084       .  S
C363        C364   1.398       .  A
C364        C365   1.397       .  A
C364        H368   1.085       .  S
C365        C366   1.402       .  A
C366        H369   1.083       .  S
C370        C371   1.413       .  A
C370        C375   1.416       .  A
C370        C665   1.503       .  S
C371        C372   1.404       .  A
C371        H376   1.083       .  S
C372        C373   1.397       .  A
C373        C374   1.399       .  A
C373        H377   1.086       .  S
C374        C375   1.405       .  A
C375        H378   1.083       .  S
C379        C380   1.410       .  A
C379        C384   1.410       .  A
C379        C652   1.488       .  S
C380        C381   1.404       .  A
C380        H385   1.084       .  S
C381        C382   1.398       .  A
C381        C426   1.473       .  S
C382        C383   1.397       .  A
C382        H386   1.085       .  S
C383        C384   1.404       .  A
C383        C419   1.475       .  S
C384        H387   1.083       .  S
C388        C389   1.407       .  A
C388        C393   1.408       .  A
C388        C642   1.485       .  S
C389        C390   1.401       .  A
C389        H394   1.083       .  S
C390        C391   1.402       .  A
C390        C410   1.474       .  S
C391        C392   1.402       .  A
C391        H395   1.085       .  S
C392        C393   1.402       .  A
C392        C428   1.475       .  S
C393        H396   1.084       .  S
C397        C398   1.407       .  A
C397        C402   1.409       .  A
C397        C632   1.484       .  S
C398        C399   1.400       .  A
C398        H403   1.084       .  S
C399        C400   1.401       .  A
C399        C417   1.476       .  S
C400        C401   1.404       .  A
C400        H404   1.084       .  S
C401        C402   1.403       .  A
C401        C408   1.477       .  S
C402        H405   1.084       .  S
C406        C407   1.412       .  A
C406        C411   1.411       .  A
C406        C625   1.490       .  S
C407        C408   1.404       .  A
C407        H412   1.084       .  S
C408        C409   1.398       .  A
C409        C410   1.398       .  A
C409        H413   1.085       .  S
C410        C411   1.404       .  A
C411        H414   1.083       .  S
C415        C416   1.409       .  A
C415        C420   1.409       .  A
C415        C615   1.489       .  S
C416        C417   1.403       .  A
C416        H421   1.084       .  S
C417        C418   1.399       .  A
C418        C419   1.401       .  A
C418        H422   1.086       .  S
C419        C420   1.404       .  A
C420        H423   1.083       .  S
C424        C425   1.410       .  A
C424        C429   1.411       .  A
C424        C602   1.493       .  S
C425        C426   1.402       .  A
C425        H430   1.084       .  S
C426        C427   1.400       .  A
C427        C428   1.399       .  A
C427        H431   1.084       .  S
C428        C429   1.405       .  A
C429        H432   1.084       .  S
O433       Cu441   2.019       .  S
O433        C443   1.278       .  A
O434       Cu441   2.020       .  S
O434        C444   1.278       .  A
O435       Cu441   2.028       .  S
O435        C445   1.279       .  A
O436       Cu441   2.013       .  S
O436        C446   1.278       .  A
O437       Cu442   2.030       .  S
O437        C446   1.280       .  A
O438       Cu442   2.009       .  S
O438        C445   1.277       .  A
O439       Cu442   2.017       .  S
O439        C444   1.279       .  A
O440       Cu442   2.017       .  S
O440        C443   1.278       .  A
Cu441      Cu442   2.357       .  S
C443        C745   1.504       .  S
C444        C605   1.497       .  S
C445        C685   1.502       .  S
C446        C802   1.499       .  S
O447       Cu455   2.036       .  S
O447        C457   1.280       .  A
O448       Cu455   2.022       .  S
O448        C458   1.278       .  A
O449       Cu455   2.026       .  S
O449        C459   1.279       .  A
O450       Cu455   2.025       .  S
O450        C460   1.279       .  A
O451       Cu456   2.004       .  S
O451        C460   1.276       .  A
O452       Cu456   2.007       .  S
O452        C459   1.276       .  A
O453       Cu456   2.027       .  S
O453        C458   1.279       .  A
O454       Cu456   2.007       .  S
O454        C457   1.277       .  A
Cu455      Cu456   2.354       .  S
C457        C915   1.501       .  S
C458        C612   1.511       .  S
C459        C962   1.503       .  S
C460        C785   1.494       .  S
O461       Cu469   2.025       .  S
O461        C471   1.278       .  A
O462       Cu469   2.024       .  S
O462        C472   1.279       .  A
O463       Cu469   2.034       .  S
O463        C473   1.280       .  A
O464       Cu469   2.030       .  S
O464        C474   1.279       .  A
O465       Cu470   2.009       .  S
O465        C474   1.276       .  A
O466       Cu470   2.010       .  S
O466        C473   1.276       .  A
O467       Cu470   2.003       .  S
O467        C472   1.276       .  A
O468       Cu470   2.005       .  S
O468        C471   1.276       .  A
Cu469      Cu470   2.352       .  S
C471        C675   1.506       .  S
C472        C975   1.497       .  S
C473        C622   1.511       .  S
C474       C1025   1.507       .  S
O475       Cu483   2.016       .  S
O475        C485   1.278       .  A
O476       Cu483   2.013       .  S
O476        C486   1.279       .  A
O477       Cu483   2.012       .  S
O477        C487   1.277       .  A
O478       Cu483   2.001       .  S
O478        C488   1.276       .  A
O479       Cu484   2.041       .  S
O479        C488   1.281       .  A
O480       Cu484   2.042       .  S
O480        C487   1.282       .  A
O481       Cu484   2.027       .  S
O481        C486   1.279       .  A
O482       Cu484   2.026       .  S
O482        C485   1.279       .  A
Cu483      Cu484   2.357       .  S
C485        C865   1.495       .  S
C486        C662   1.489       .  S
C487       C1035   1.507       .  S
C488        C732   1.506       .  S
O489       Cu497   2.017       .  S
O489        C499   1.278       .  A
O490       Cu497   2.018       .  S
O490        C500   1.278       .  A
O491       Cu497   2.011       .  S
O491        C501   1.277       .  A
O492       Cu497   2.018       .  S
O492        C502   1.279       .  A
O493       Cu498   2.018       .  S
O493        C502   1.278       .  A
O494       Cu498   2.015       .  S
O494        C501   1.279       .  A
O495       Cu498   2.028       .  S
O495        C500   1.280       .  A
O496       Cu498   2.028       .  S
O496        C499   1.280       .  A
Cu497      Cu498   2.361       .  S
C499        C845   1.504       .  S
C500        C795   1.497       .  S
C501        C905   1.487       .  S
C502        C725   1.491       .  S
O503       Cu511   2.012       .  S
O503        C513   1.278       .  A
O504       Cu511   2.016       .  S
O504        C514   1.277       .  A
O505       Cu511   2.015       .  S
O505        C515   1.278       .  A
O506       Cu511   2.019       .  S
O506        C516   1.279       .  A
O507       Cu512   2.016       .  S
O507        C516   1.278       .  A
O508       Cu512   2.018       .  S
O508        C515   1.279       .  A
O509       Cu512   2.013       .  S
O509        C514   1.277       .  A
O510       Cu512   2.011       .  S
O510        C513   1.278       .  A
Cu511      Cu512   2.353       .  S
C513       C1045   1.488       .  S
C514        C925   1.508       .  S
C515        C855   1.494       .  S
C516        C985   1.495       .  S
O517       Cu525   2.012   1_455  S
O517        C527   1.277   1_565  A
O518       Cu525   1.998       .  S
O518        C528   1.276       .  A
O519       Cu525   2.018       .  S
O519        C529   1.279   1_565  A
O520       Cu525   2.038   1_455  S
O520        C530   1.281       .  A
O521       Cu526   2.009   1_455  S
O521        C530   1.276       .  A
O522       Cu526   2.026       .  S
O522        C529   1.279   1_565  A
O523       Cu526   2.033       .  S
O523        C528   1.280       .  A
O524       Cu526   2.012   1_455  S
O524        C527   1.278   1_565  A
Cu525      Cu526   2.357       .  S
C527        C635   1.499       .  S
C528        C765   1.498       .  S
C529        C705   1.503       .  S
C530        C825   1.504       .  S
O531       Cu539   2.025   1_445  S
O531        C541   1.279       .  A
O532       Cu539   2.022       .  S
O532        C542   1.279       .  A
O533       Cu539   2.020       .  S
O533        C543   1.279   1_565  A
O534       Cu539   2.019   1_455  S
O534        C544   1.278       .  A
O535       Cu540   2.006   1_455  S
O535        C544   1.277       .  A
O536       Cu540   2.011       .  S
O536        C543   1.278   1_565  A
O537       Cu540   2.007       .  S
O537        C542   1.277       .  A
O538       Cu540   2.013   1_455  S
O538        C541   1.278   1_565  A
Cu539      Cu540   2.358       .  S
C541       C1005   1.492       .  S
C542        C892   1.490       .  S
C543       C1062   1.494       .  S
C544        C945   1.499       .  S
O545       Cu553   2.025       .  S
O545        C555   1.279   1_554  A
O546       Cu553   2.021       .  S
O546        C556   1.279   1_565  A
O547       Cu553   2.022       .  S
O547        C557   1.277       .  A
O548       Cu553   2.019       .  S
O548        C558   1.278   1_564  A
O549       Cu554   2.017       .  S
O549        C558   1.278   1_564  A
O550       Cu554   2.016       .  S
O550        C557   1.277       .  A
O551       Cu554   2.000       .  S
O551        C556   1.276   1_565  A
O552       Cu554   2.004       .  S
O552        C555   1.276   1_554  A
Cu553      Cu554   2.352       .  S
C555        C955   1.501       .  S
C556        C645   1.495       .  S
C557        C815   1.513       .  S
C558        C995   1.506       .  S
O559       Cu567   2.025       .  S
O559        C569   1.279       .  A
O560       Cu567   2.006   1_455  S
O560        C570   1.276   1_554  A
O561       Cu567   2.022   1_556  S
O561        C571   1.278       .  A
O562       Cu567   2.021   1_455  S
O562        C572   1.278       .  A
O563       Cu568   2.012   1_455  S
O563        C572   1.276       .  A
O564       Cu568   2.010   1_556  S
O564        C571   1.277       .  A
O565       Cu568   2.024   1_456  S
O565        C570   1.280       .  A
O566       Cu568   2.011       .  S
O566        C569   1.277       .  A
Cu567      Cu568   2.354       .  S
C569        C715   1.494       .  S
C570       C1015   1.495       .  S
C571       C1055   1.500       .  S
C572        C655   1.514       .  S
O573       Cu581   2.027   1_545  S
O573        C583   1.280       .  A
O574       Cu581   2.027       .  S
O574        C584   1.279       .  A
O575       Cu581   2.022   1_545  S
O575        C585   1.279       .  A
O576       Cu581   2.025       .  S
O576        C586   1.279   1_554  A
O577       Cu582   2.008       .  S
O577        C586   1.278   1_554  A
O578       Cu582   2.005       .  S
O578        C585   1.277   1_565  A
O579       Cu582   2.009       .  S
O579        C584   1.277       .  A
O580       Cu582   2.011   1_545  S
O580        C583   1.277       .  A
Cu581      Cu582   2.359       .  S
C583       C1075   1.499   1_554  S
C584        C775   1.497       .  S
C585        C692   1.487       .  S
C586        C882   1.491       .  S
O587       Cu595   2.044   1_455  S
O587        C597   1.281       .  A
O588       Cu595   2.026   1_556  S
O588        C598   1.280       .  A
O589       Cu595   2.037   1_456  S
O589        C599   1.280       .  A
O590       Cu595   2.029       .  S
O590        C600   1.280       .  A
O591       Cu596   1.996       .  S
O591        C600   1.276       .  A
O592       Cu596   1.994   1_455  S
O592        C599   1.274   1_554  A
O593       Cu596   2.011   1_556  S
O593        C598   1.277       .  A
O594       Cu596   1.989   1_455  S
O594        C597   1.275       .  A
Cu595      Cu596   2.358       .  S
C597        C835   1.492       .  S
C598        C875   1.492       .  S
C599        C935   1.511       .  S
C600        C752   1.494       .  S
C601        C602   1.413       .  A
C601        C606   1.413       .  A
C601       Br608   1.934       .  S
C602        C603   1.410       .  A
C603        C604   1.411       .  A
C603       Br610   1.932       .  S
C604        C605   1.417       .  A
C604       Br609   1.934       .  S
C605        C606   1.419       .  A
C606       Br607   1.934       .  S
C611        C612   1.428       .  A
C611        C616   1.415       .  A
C611       Br618   1.935       .  S
C612        C613   1.426       .  A
C613        C614   1.412       .  A
C613       Br620   1.934       .  S
C614        C615   1.407       .  A
C614       Br619   1.937       .  S
C615        C616   1.406       .  A
C616       Br617   1.933       .  S
C621        C622   1.426       .  A
C621        C626   1.416       .  A
C621       Br628   1.934       .  S
C622        C623   1.427       .  A
C623        C624   1.410       .  A
C623       Br630   1.934       .  S
C624        C625   1.407       .  A
C624       Br629   1.938       .  S
C625        C626   1.408       .  A
C626       Br627   1.932       .  S
C631        C632   1.409       .  A
C631        C636   1.410       .  A
C631       Br638   1.937       .  S
C632        C633   1.406       .  A
C633        C634   1.409       .  A
C633       Br640   1.932       .  S
C634        C635   1.422       .  A
C634       Br639   1.935       .  S
C635        C636   1.423       .  A
C636       Br637   1.933       .  S
C641        C642   1.408       .  A
C641        C646   1.409       .  A
C641       Br648   1.933       .  S
C642        C643   1.410       .  A
C643        C644   1.409       .  A
C643       Br650   1.936       .  S
C644        C645   1.421       .  A
C644       Br649   1.933   1_545  S
C645        C646   1.419       .  A
C646       Br647   1.930       .  S
C651        C652   1.405       .  A
C651        C656   1.412       .  A
C651       Br658   1.937       .  S
C652        C653   1.404       .  A
C653        C654   1.414       .  A
C653       Br660   1.934       .  S
C654        C655   1.430       .  A
C654       Br659   1.936       .  S
C655        C656   1.431       .  A
C656       Br657   1.938       .  S
C661        C662   1.410       .  A
C661        C666   1.411       .  A
C661       Br668   1.935       .  S
C662        C663   1.411       .  A
C663        C664   1.413       .  A
C663       Br670   1.930       .  S
C664        C665   1.417       .  A
C664       Br669   1.932       .  S
C665        C666   1.421       .  A
C666       Br667   1.934       .  S
C671        C672   1.406       .  A
C671        C676   1.413       .  A
C671       Br678   1.933       .  S
C672        C673   1.406       .  A
C673        C674   1.410       .  A
C673       Br680   1.937       .  S
C674        C675   1.426       .  A
C674       Br679   1.936       .  S
C675        C676   1.426       .  A
C676       Br677   1.935       .  S
C681        C682   1.410       .  A
C681        C686   1.413       .  A
C681       Br688   1.935       .  S
C682        C683   1.410       .  A
C683        C684   1.411       .  A
C683       Br690   1.934       .  S
C684        C685   1.421       .  A
C684       Br689   1.936       .  S
C685        C686   1.421       .  A
C686       Br687   1.931       .  S
C691        C692   1.415       .  A
C691        C696   1.408       .  A
C691       Br698   1.935       .  S
C692        C693   1.414       .  A
C693        C694   1.411       .  A
C693       Br700   1.931       .  S
C694        C695   1.413       .  A
C694       Br699   1.932       .  S
C695        C696   1.413       .  A
C696       Br697   1.935       .  S
C701        C702   1.411       .  A
C701        C706   1.414       .  A
C701       Br708   1.934       .  S
C702        C703   1.412       .  A
C703        C704   1.411       .  A
C703       Br710   1.934       .  S
C704        C705   1.420       .  A
C704       Br709   1.935       .  S
C705        C706   1.421       .  A
C706       Br707   1.932       .  S
C711        C712   1.414       .  A
C711        C716   1.412       .  A
C711       Br718   1.934       .  S
C712        C713   1.414       .  A
C713        C714   1.411       .  A
C713       Br720   1.934       .  S
C714        C715   1.416       .  A
C714       Br719   1.934       .  S
C715        C716   1.416       .  A
C716       Br717   1.933       .  S
C721        C722   1.415       .  A
C721        C726   1.410       .  A
C721       Br728   1.933       .  S
C722        C723   1.416       .  A
C723        C724   1.413       .  A
C723       Br730   1.933       .  S
C724        C725   1.414       .  A
C724       Br729   1.932       .  S
C725        C726   1.413       .  A
C726       Br727   1.934       .  S
C731        C732   1.425       .  A
C731        C736   1.416       .  A
C731       Br738   1.932       .  S
C732        C733   1.424       .  A
C733        C734   1.408       .  A
C733       Br740   1.936       .  S
C734        C735   1.406       .  A
C734       Br739   1.937       .  S
C735        C736   1.407       .  A
C736       Br737   1.931       .  S
C741        C742   1.407       .  A
C741        C746   1.412       .  A
C741       Br748   1.934       .  S
C742        C743   1.408       .  A
C743        C744   1.409       .  A
C743       Br750   1.938       .  S
C744        C745   1.423       .  A
C744       Br749   1.932       .  S
C745        C746   1.424       .  A
C746       Br747   1.932       .  S
C751        C752   1.420       .  A
C751        C756   1.413       .  A
C751       Br758   1.932       .  S
C752        C753   1.419       .  A
C753        C754   1.406       .  A
C753       Br760   1.935       .  S
C754        C755   1.408       .  A
C754       Br759   1.936       .  S
C755        C756   1.408       .  A
C756       Br757   1.930       .  S
C761        C762   1.411       .  A
C761        C766   1.409       .  A
C761       Br768   1.935       .  S
C762        C763   1.409       .  A
C763        C764   1.412       .  A
C763       Br770   1.932       .  S
C764        C765   1.419       .  A
C764       Br769   1.929       .  S
C765        C766   1.420       .  A
C766       Br767   1.937       .  S
C771        C772   1.410       .  A
C771        C776   1.414       .  A
C771       Br778   1.931       .  S
C772        C773   1.411       .  A
C773        C774   1.408       .  A
C773       Br780   1.936       .  S
C774        C775   1.419       .  A
C774       Br779   1.935       .  S
C775        C776   1.420       .  A
C776       Br777   1.932       .  S
C781        C782   1.412       .  A
C781        C786   1.412       .  A
C781       Br788   1.932       .  S
C782        C783   1.413       .  A
C783        C784   1.410       .  A
C783       Br790   1.936       .  S
C784        C785   1.418       .  A
C784       Br789   1.936       .  S
C785        C786   1.417       .  A
C786       Br787   1.933       .  S
C791        C792   1.415       .  A
C791        C796   1.412       .  A
C791       Br798   1.934       .  S
C792        C793   1.413       .  A
C793        C794   1.414       .  A
C793       Br800   1.932       .  S
C794        C795   1.418       .  A
C794       Br799   1.933       .  S
C795        C796   1.415       .  A
C796       Br797   1.933       .  S
C801        C802   1.419       .  A
C801        C806   1.414       .  A
C801       Br808   1.929       .  S
C802        C803   1.419       .  A
C803        C804   1.411       .  A
C803       Br810   1.935       .  S
C804        C805   1.412       .  A
C804       Br809   1.935       .  S
C805        C806   1.410       .  A
C806       Br807   1.932       .  S
C811        C812   1.405       .  A
C811        C816   1.411       .  A
C811       Br818   1.936       .  S
C812        C813   1.405       .  A
C813        C814   1.415       .  A
C813       Br820   1.932       .  S
C814        C815   1.429       .  A
C814       Br819   1.936       .  S
C815        C816   1.428       .  A
C816       Br817   1.935       .  S
C821        C822   1.413       .  A
C821        C826   1.413       .  A
C821       Br828   1.936       .  S
C822        C823   1.411       .  A
C823        C824   1.414       .  A
C823       Br830   1.933       .  S
C824        C825   1.422       .  A
C824       Br829   1.935       .  S
C825        C826   1.419       .  A
C826       Br827   1.931       .  S
C831        C832   1.414       .  A
C831        C836   1.407       .  A
C831       Br838   1.935       .  S
C832        C833   1.416       .  A
C833        C834   1.416       .  A
C833       Br840   1.930       .  S
C834        C835   1.414       .  A
C834       Br839   1.930       .  S
C835        C836   1.414       .  A
C836       Br837   1.937       .  S
C841        C842   1.411       .  A
C841        C846   1.414       .  A
C841       Br848   1.935       .  S
C842        C843   1.407       .  A
C843        C844   1.412       .  A
C843       Br850   1.933       .  S
C844        C845   1.423       .  A
C844       Br849   1.934       .  S
C845        C846   1.422       .  A
C846       Br847   1.934       .  S
C851        C852   1.412       .  A
C851        C856   1.411       .  A
C851       Br858   1.933       .  S
C852        C853   1.412       .  A
C853        C854   1.411       .  A
C853       Br860   1.934       .  S
C854        C855   1.418       .  A
C854       Br859   1.934       .  S
C855        C856   1.417       .  A
C856       Br857   1.934       .  S
C861        C862   1.414       .  A
C861        C866   1.410       .  A
C861       Br868   1.935       .  S
C862        C863   1.413       .  A
C863        C864   1.413       .  A
C863       Br870   1.933       .  S
C864        C865   1.417       .  A
C864       Br869   1.932       .  S
C865        C866   1.415       .  A
C866       Br867   1.934       .  S
C871        C872   1.414       .  A
C871        C876   1.412       .  A
C871       Br878   1.932       .  S
C872        C873   1.414       .  A
C873        C874   1.409       .  A
C873       Br880   1.936       .  S
C874        C875   1.415       .  A
C874       Br879   1.930       .  S
C875        C876   1.415       .  A
C876       Br877   1.932       .  S
C881        C882   1.415       .  A
C881        C886   1.414       .  A
C881       Br888   1.932       .  S
C882        C883   1.414       .  A
C883        C884   1.408       .  A
C883       Br890   1.934   1_556  S
C884        C885   1.414       .  A
C884       Br889   1.934       .  S
C885        C886   1.415       .  A
C886       Br887   1.932       .  S
C891        C892   1.414       .  A
C891        C896   1.410       .  A
C891       Br898   1.933       .  S
C892        C893   1.415       .  A
C893        C894   1.411       .  A
C893       Br900   1.935       .  S
C894        C895   1.417       .  A
C894       Br899   1.935       .  S
C895        C896   1.413       .  A
C896       Br897   1.932       .  S
C901        C902   1.416       .  A
C901        C906   1.407       .  A
C901       Br908   1.936       .  S
C902        C903   1.413       .  A
C903        C904   1.411       .  A
C903       Br910   1.932       .  S
C904        C905   1.414       .  A
C904       Br909   1.932       .  S
C905        C906   1.412       .  A
C906       Br907   1.934       .  S
C911        C912   1.411       .  A
C911        C916   1.414       .  A
C911       Br918   1.933       .  S
C912        C913   1.412       .  A
C913        C914   1.411       .  A
C913       Br920   1.935       .  S
C914        C915   1.420       .  A
C914       Br919   1.936       .  S
C915        C916   1.420       .  A
C916       Br917   1.930       .  S
C921        C922   1.404       .  A
C921        C926   1.413       .  A
C921       Br928   1.933       .  S
C922        C923   1.405       .  A
C923        C924   1.410       .  A
C923       Br930   1.937       .  S
C924        C925   1.427       .  A
C924       Br929   1.936       .  S
C925        C926   1.429       .  A
C926       Br927   1.936       .  S
C931        C932   1.405       .  A
C931        C936   1.415       .  A
C931       Br938   1.932       .  S
C932        C933   1.404       .  A
C933        C934   1.409       .  A
C933       Br940   1.938       .  S
C934        C935   1.430       .  A
C934       Br939   1.939       .  S
C935        C936   1.427       .  A
C936       Br937   1.934       .  S
C941        C942   1.408       .  A
C941        C946   1.405       .  A
C941       Br948   1.936       .  S
C942        C943   1.407       .  A
C943        C944   1.414       .  A
C943       Br950   1.931       .  S
C944        C945   1.424       .  A
C944       Br949   1.933       .  S
C945        C946   1.420       .  A
C946       Br947   1.936       .  S
C951        C952   1.409       .  A
C951        C956   1.410       .  A
C951       Br958   1.937       .  S
C952        C953   1.409       .  A
C953        C954   1.412       .  A
C953       Br960   1.933       .  S
C954        C955   1.422       .  A
C954       Br959   1.934       .  S
C955        C956   1.424       .  A
C956       Br957   1.935       .  S
C961        C962   1.424       .  A
C961        C966   1.409       .  A
C961       Br968   1.935       .  S
C962        C963   1.423       .  A
C963        C964   1.412       .  A
C963       Br970   1.932       .  S
C964        C965   1.407       .  A
C964       Br969   1.933       .  S
C965        C966   1.408       .  A
C966       Br967   1.937       .  S
C971        C972   1.408       .  A
C971        C976   1.412       .  A
C971       Br978   1.932       .  S
C972        C973   1.408       .  A
C973        C974   1.406       .  A
C973       Br980   1.937       .  S
C974        C975   1.420       .  A
C974       Br979   1.932       .  S
C975        C976   1.421       .  A
C976       Br977   1.931       .  S
C981        C982   1.413       .  A
C981        C986   1.410       .  A
C981       Br988   1.934       .  S
C982        C983   1.410       .  A
C983        C984   1.412       .  A
C983       Br990   1.931       .  S
C984        C985   1.418       .  A
C984       Br989   1.933       .  S
C985        C986   1.417       .  A
C986       Br987   1.934       .  S
C991        C992   1.405       .  A
C991        C996   1.413       .  A
C991       Br998   1.933       .  S
C992        C993   1.408       .  A
C993        C994   1.409       .  A
C993      Br1000   1.938       .  S
C994        C995   1.424       .  A
C994       Br999   1.934       .  S
C995        C996   1.426       .  A
C996       Br997   1.932       .  S
C1001      C1002   1.412       .  A
C1001      C1006   1.414       .  A
C1001     Br1008   1.931       .  S
C1002      C1003   1.414       .  A
C1003      C1004   1.408       .  A
C1003     Br1010   1.935       .  S
C1004      C1005   1.414       .  A
C1004     Br1009   1.933       .  S
C1005      C1006   1.416       .  A
C1006     Br1007   1.932       .  S
C1011      C1012   1.409       .  A
C1011      C1016   1.411       .  A
C1011     Br1018   1.933       .  S
C1012      C1013   1.412       .  A
C1013      C1014   1.411       .  A
C1013     Br1020   1.934       .  S
C1014      C1015   1.417       .  A
C1014     Br1019   1.933       .  S
C1015      C1016   1.420       .  A
C1016     Br1017   1.934       .  S
C1021      C1022   1.406       .  A
C1021      C1026   1.408       .  A
C1021     Br1028   1.938       .  S
C1022      C1023   1.406       .  A
C1023      C1024   1.415       .  A
C1023     Br1030   1.933       .  S
C1024      C1025   1.426       .  A
C1024     Br1029   1.932       .  S
C1025      C1026   1.425       .  A
C1026     Br1027   1.935       .  S
C1031      C1032   1.414       .  A
C1031      C1036   1.417       .  A
C1031     Br1038   1.932       .  S
C1032      C1033   1.411       .  A
C1033      C1034   1.413       .  A
C1033     Br1040   1.933       .  S
C1034      C1035   1.421       .  A
C1034     Br1039   1.935       .  S
C1035      C1036   1.420       .  A
C1036     Br1037   1.933       .  S
C1041      C1042   1.413       .  A
C1041      C1046   1.409       .  A
C1041     Br1048   1.934       .  S
C1042      C1043   1.415       .  A
C1043      C1044   1.410       .  A
C1043     Br1050   1.934       .  S
C1044      C1045   1.414       .  A
C1044     Br1049   1.934       .  S
C1045      C1046   1.415       .  A
C1046     Br1047   1.934       .  S
C1051      C1052   1.409       .  A
C1051      C1056   1.410       .  A
C1051     Br1058   1.935       .  S
C1052      C1053   1.407       .  A
C1053      C1054   1.411       .  A
C1053     Br1060   1.934       .  S
C1054      C1055   1.422       .  A
C1054     Br1059   1.933       .  S
C1055      C1056   1.422       .  A
C1056     Br1057   1.936       .  S
C1061      C1062   1.417       .  A
C1061      C1066   1.411       .  A
C1061     Br1068   1.936   1_545  S
C1062      C1063   1.416       .  A
C1063      C1064   1.410       .  A
C1063     Br1070   1.933       .  S
C1064      C1065   1.411       .  A
C1064     Br1069   1.933       .  S
C1065      C1066   1.416       .  A
C1066     Br1067   1.935       .  S
C1071      C1072   1.411       .  A
C1071      C1076   1.414       .  A
C1071     Br1078   1.931       .  S
C1072      C1073   1.411       .  A
C1073      C1074   1.410       .  A
C1073     Br1080   1.935       .  S
C1074      C1075   1.420       .  A
C1074     Br1079   1.935       .  S
C1075      C1076   1.419       .  A
C1076     Br1077   1.933   1_556  S
