geometry optimzed in LAMMPS
_audit_creation_date              2020-11-30 
_audit_creation_method            'lammps2cif' 
_symmetry_space_group_name_H-M    'P1' 
_symmetry_Int_Tables_number       1 
_symmetry_cell_setting            triclinic 
loop_ 
_symmetry_equiv_pos_as_xyz 
  x,y,z 
_cell_length_a                    40.99465566 
_cell_length_b                    41.38490271174493 
_cell_length_c                    27.90783273680721 
_cell_angle_alpha                 90.82676597542851 
_cell_angle_beta                  89.46132427291023 
_cell_angle_gamma                 121.86860950592646 
loop_ 
_atom_site_label 
_atom_site_type_symbol 
_atom_site_fract_x 
_atom_site_fract_y 
_atom_site_fract_z 
_atom_site_charge 
C1          C  0.48509343  0.29105984  0.13732736     0.80500
N2          N  0.48801134  0.27772557  0.18066625    -0.77800
C3          C  0.48521331  0.24348131  0.18285092     0.82900
N4          N  0.47993713  0.22320457  0.14239641    -0.77800
C5          C  0.47745674  0.23603911  0.09940933     0.83000
N6          N  0.47993754  0.27006315  0.09666061    -0.79500
C7          C  0.29043781  0.87804834  0.36710267     0.80500
N8          N  0.26951013  0.86563402  0.32595426    -0.77800
C9          C  0.23324048  0.83438283  0.32667894     0.82900
N10         N  0.21898363  0.81531538  0.36803897    -0.77800
C11         C  0.23964134  0.82726946  0.40877306     0.83000
N12         N  0.27539180  0.85863645  0.40838763    -0.79500
C13         C  0.84936552  0.20944569  0.10634153     0.80500
N14         N  0.86671456  0.22226897  0.06303822    -0.77800
C15         C  0.90284125  0.25341654  0.06035865     0.82900
N16         N  0.92090725  0.27226596  0.10098029    -0.77800
C17         C  0.90407556  0.26044615  0.14429411     0.83000
N18         N  0.86831092  0.22876946  0.14688233    -0.79500
C19         C  0.65761807  0.82015380  0.38327568     0.80500
N20         N  0.64909652  0.83402551  0.34455083    -0.77800
C21         C  0.65173116  0.86804039  0.34790892     0.82900
N22         N  0.66292248  0.88795348  0.38914873    -0.77800
C23         C  0.67087128  0.87453928  0.42804746     0.83000
N24         N  0.66817903  0.84039450  0.42534309    -0.79500
C25         C  0.90527416  0.66596320  0.12727911     0.80500
N26         N  0.89102441  0.66885553  0.08480164    -0.77800
C27         C  0.86029524  0.67290651  0.08427548     0.82900
N28         N  0.84374385  0.67343844  0.12598309    -0.77800
C29         C  0.85724887  0.67008375  0.16825212     0.83000
N30         N  0.88744646  0.66522805  0.16896291    -0.79500
C31         C  0.23884780  0.44311031  0.38246514     0.80500
N32         N  0.25556173  0.44159267  0.42365210    -0.77800
C33         C  0.28786803  0.44010177  0.42095871     0.82900
N34         N  0.30395247  0.44212034  0.37792761    -0.77800
C35         C  0.28815562  0.44475156  0.33733534     0.83000
N36         N  0.25565748  0.44556187  0.33938467    -0.79500
Zn37       Zn  0.04505853  0.45875331  0.42450075     1.49700
Zn38       Zn  0.02561577  0.51449153  0.36912972     1.49400
Zn39       Zn  0.05125792  0.46235595  0.30983649     1.49100
Zn40       Zn  0.97242128  0.42497707  0.35777158     1.49500
O41         O  0.02455756  0.46670239  0.36566593    -1.83900
O42         O  0.05657335  0.49837822  0.47578304    -0.74500
O43         O  0.05134914  0.54355373  0.30499345    -0.74300
O44         O  0.09936975  0.46464537  0.33062439    -0.73800
O45         O  0.05268495  0.54198918  0.43436854    -0.74500
O46         O  0.09411699  0.46186237  0.41019815    -0.74100
O47         O  0.06360368  0.50460390  0.26306210    -0.74700
O48         O  0.96136700  0.39758613  0.29584134    -0.74100
O49         O  0.96941523  0.50313825  0.37159160    -0.74800
O50         O  0.01915099  0.41081736  0.27637106    -0.74200
O51         O  0.93469432  0.43991554  0.36747966    -0.74700
O52         O  0.96065331  0.38402663  0.40205870    -0.74600
O53         O  0.01056394  0.40566814  0.44972796    -0.74400
C54         C  0.06065730  0.53101648  0.47322260     0.77400
C55         C  0.06281101  0.53499992  0.26636793     0.77900
C56         C  0.11163281  0.46323861  0.37183199     0.76800
C57         C  0.98288267  0.38940095  0.27269771     0.77200
C58         C  0.93695985  0.47157216  0.37122792     0.78400
C59         C  0.97773037  0.37879291  0.43557189     0.77400
Zn60       Zn  0.08264297  0.62959023  0.06526048     1.49700
Zn61       Zn  0.10937042  0.57872302  0.11990215     1.49400
Zn62       Zn  0.16129992  0.66882651  0.11207272     1.49100
Zn63       Zn  0.08945534  0.63397697  0.18034935     1.49500
O64         O  0.10975929  0.62630934  0.12006911    -1.83900
O65         O  0.06812474  0.58714889  0.01813658    -0.74500
O66         O  0.16561643  0.59116290  0.12118056    -0.74300
O67         O  0.17220007  0.69407461  0.04946741    -0.73800
O68         O  0.08269572  0.54908200  0.05557922    -0.74500
O69         O  0.11383013  0.67810425  0.02864800    -0.74100
O70         O  0.19901586  0.65450665  0.12236717    -0.74700
O71         O  0.12585983  0.68647429  0.20949591    -0.74100
O72         O  0.08417018  0.55065762  0.18443998    -0.74800
O73         O  0.17298085  0.71037807  0.15676564    -0.74200
O74         O  0.07742240  0.59241011  0.22821188    -0.74700
O75         O  0.04119394  0.63355091  0.16675533    -0.74600
O76         O  0.03667791  0.62979609  0.08712626    -0.74400
C77         C  0.06957230  0.55721735  0.01887846     0.77400
C78         C  0.19747990  0.62317032  0.12360217     0.77900
C79         C  0.14994401  0.69923695  0.02397876     0.76800
C80         C  0.15767329  0.71421569  0.19404565     0.77200
C81         C  0.07544383  0.56066455  0.22408344     0.78400
C82         C  0.02460679  0.63276356  0.12806282     0.77400
Zn83       Zn  0.48789320  0.09490474  0.38716854     1.49700
Zn84       Zn  0.56417172  0.12611147  0.32716784     1.49400
Zn85       Zn  0.56552070  0.12582523  0.44268451     1.49100
Zn86       Zn  0.53027880  0.04723619  0.38391696     1.49500
O87         O  0.53738552  0.09814696  0.38515632    -1.83900
O88         O  0.48257938  0.12590938  0.33742065    -0.74500
O89         O  0.61575608  0.17311438  0.34439237    -0.74300
O90         O  0.53929862  0.14984863  0.47455800    -0.73800
O91         O  0.53748198  0.15034252  0.29825396    -0.74500
O92         O  0.48016756  0.11811064  0.44569190    -0.74100
O93         O  0.61641140  0.17253324  0.42423185    -0.74700
O94         O  0.55059111  0.03805545  0.44853967    -0.74100
O95         O  0.56678465  0.09090299  0.27680190    -0.74800
O96         O  0.56877822  0.09072242  0.49163745    -0.74200
O97         O  0.55170212  0.03933971  0.31903848    -0.74700
O98         O  0.47287287  0.00764893  0.38168471    -0.74600
O99         O  0.44523575  0.04169850  0.38151144    -0.74400
C100        C  0.50589802  0.14839269  0.30631745     0.77400
C101        C  0.63077102  0.18914174  0.38446663     0.77900
C102        C  0.50538812  0.14339678  0.47323922     0.76800
C103        C  0.56233844  0.05699245  0.48820041     0.77200
C104        C  0.56184763  0.05780603  0.27949529     0.78400
C105        C  0.44306626  0.00997828  0.38082141     0.77400
Zn106      Zn  0.62558060  0.02334086  0.18811425     1.49700
Zn107      Zn  0.54601282  0.00286619  0.13332223     1.49400
Zn108      Zn  0.62282532  0.02155261  0.07377067     1.49100
Zn109      Zn  0.57843463  0.94896758  0.13454323     1.49500
O110        O  0.59278450  0.00097788  0.13211487    -1.83900
O111        O  0.59954343  0.03896234  0.23715308    -0.74500
O112        O  0.54641970  0.03052011  0.06928363    -0.74300
O113        O  0.67338926  0.06886491  0.08974592    -0.73800
O114        O  0.54776788  0.03074149  0.19910851    -0.74500
O115        O  0.67685158  0.06886580  0.16903449    -0.74100
O116        O  0.59400041  0.03359396  0.02551671    -0.74700
O117        O  0.61085976  0.93787052  0.09451135    -0.74100
O118        O  0.49761038  0.94617447  0.13125409    -0.74800
O119        O  0.63838082  0.98642544  0.04498149    -0.74200
O120        O  0.52630270  0.91435081  0.11444125    -0.74700
O121        O  0.58269852  0.93237191  0.19839253    -0.74600
O122        O  0.63635669  0.98567033  0.21860048    -0.74400
C123        C  0.56981449  0.04139528  0.23625746     0.77400
C124        C  0.56561377  0.03808814  0.02976023     0.77900
C125        C  0.69193037  0.08303570  0.12862481     0.76800
C126        C  0.63283298  0.95490057  0.05948543     0.77200
C127        C  0.49618318  0.91520601  0.12005649     0.78400
C128        C  0.61377540  0.94980958  0.22167192     0.77400
C129        C  0.71668983  0.40679723  0.36136120     0.80500
N130        N  0.75572708  0.42921896  0.36381052    -0.77800
C131        C  0.77714299  0.41327590  0.36995722     0.82900
N132        N  0.75937843  0.37482351  0.37307019    -0.77800
C133        C  0.72050770  0.35234055  0.37125083     0.83000
N134        N  0.69929099  0.36849620  0.36573168    -0.79500
C135        C  0.42053963  0.70531667  0.12415590     0.80500
N136        N  0.38209828  0.67987498  0.12697542    -0.77800
C137        C  0.35719029  0.69199081  0.12927082     0.82900
N138        N  0.37071709  0.72987971  0.12832516    -0.77800
C139        C  0.40907214  0.75572731  0.12568623     0.83000
N140        N  0.43406779  0.74334822  0.12348634    -0.79500
Zn141      Zn  0.44553242  0.47402733  0.12134723     1.49700
Zn142      Zn  0.53562844  0.52030967  0.12098822     1.49400
Zn143      Zn  0.49079233  0.55342064  0.06593900     1.49100
Zn144      Zn  0.48853185  0.55219522  0.17918980     1.49500
O145        O  0.49103298  0.52555457  0.12182851    -1.83900
O146        O  0.45591626  0.43207626  0.11897243    -0.74500
O147        O  0.56718152  0.54471081  0.05826642    -0.74300
O148        O  0.43880715  0.52389575  0.03527581    -0.73800
O149        O  0.51928053  0.46384925  0.11980433    -0.74500
O150        O  0.41030173  0.46753537  0.06990136    -0.74100
O151        O  0.53240630  0.56224643  0.01769953    -0.74700
O152        O  0.49135716  0.60166604  0.16368279    -0.74100
O153        O  0.56336634  0.54103701  0.18607881    -0.74800
O154        O  0.49410386  0.60264936  0.08449746    -0.74200
O155        O  0.52811458  0.55853583  0.22757190    -0.74700
O156        O  0.43684204  0.52130213  0.21038711    -0.74600
O157        O  0.41166793  0.46448544  0.17661926    -0.74400
C158        C  0.48693764  0.43230415  0.11938063     0.77400
C159        C  0.56097005  0.55792443  0.02029295     0.77900
C160        C  0.40965655  0.49068433  0.04128643     0.76800
C161        C  0.49135696  0.61673849  0.12419143     0.77200
C162        C  0.55567852  0.55267053  0.22502721     0.78400
C163        C  0.40971998  0.48669242  0.20638892     0.77400
Zn164      Zn  0.60039191  0.58952808  0.37294719     1.49700
Zn165      Zn  0.69122134  0.63422951  0.37352656     1.49400
Zn166      Zn  0.64374275  0.55375324  0.42379425     1.49100
Zn167      Zn  0.64674997  0.55895280  0.31137996     1.49500
O168        O  0.64463276  0.58367268  0.37023475    -1.83900
O169        O  0.61787834  0.64569629  0.37548807    -0.74500
O170        O  0.72267665  0.64067602  0.42979936    -0.74300
O171        O  0.60615786  0.54907622  0.47561272    -0.73800
O172        O  0.68122137  0.67597699  0.37361149    -0.74500
O173        O  0.57184812  0.56872617  0.43838278    -0.74100
O174        O  0.69531322  0.58095398  0.45331776    -0.74700
O175        O  0.64241359  0.50888000  0.32368674    -0.74100
O176        O  0.72834837  0.64292584  0.32213038    -0.74800
O177        O  0.63904597  0.50430005  0.40275677    -0.74200
O178        O  0.69905906  0.58867124  0.28136826    -0.74700
O179        O  0.60739445  0.55442913  0.26463543    -0.74600
O180        O  0.57089593  0.56925181  0.30824762    -0.74400
C181        C  0.65068415  0.67656881  0.37574925     0.77400
C182        C  0.72314948  0.61529654  0.45394119     0.77900
C183        C  0.57966978  0.55656049  0.47607023     0.76800
C184        C  0.64232597  0.49224991  0.36181800     0.77200
C185        C  0.72866481  0.62111049  0.29009000     0.78400
C186        C  0.57913309  0.55914140  0.26837220     0.77400
C187        C  0.46697227  0.65172376  0.08049041    -0.05500
C188        C  0.48263525  0.64779407  0.12323192     0.00400
C189        C  0.48404722  0.66952599  0.16420034    -0.08200
C190        C  0.46574040  0.69045752  0.16218670    -0.05500
C191        C  0.44669971  0.69071356  0.12083222     0.00400
C192        C  0.44877445  0.67253899  0.07870726    -0.08100
C193        C  0.43069166  0.67422607  0.03231626     0.62300
H194        H  0.46649869  0.63606872  0.04884453     0.13000
H195        H  0.46422778  0.70500879  0.19391658     0.13000
C196        C  0.50402985  0.67050187  0.21021533     0.62500
F197        F  0.43933846  0.65817301  0.99424397    -0.22600
F198        F  0.44422460  0.71175359  0.02138440    -0.20000
F199        F  0.39119326  0.65474616  0.03718558    -0.19600
F200        F  0.53971004  0.67607410  0.19982408    -0.19700
F201        F  0.48205085  0.63673975  0.23453875    -0.20000
F202        F  0.50962571  0.69989080  0.24033635    -0.22700
C203        C  0.66840390  0.41944859  0.39568439    -0.05500
C204        C  0.69298729  0.42402218  0.35753788     0.00400
C205        C  0.69419736  0.44449476  0.31681459    -0.08200
C206        C  0.67392229  0.46334066  0.31789652    -0.05500
C207        C  0.65257229  0.46246008  0.35839516     0.00400
C208        C  0.64773389  0.43798975  0.39673107    -0.08100
C209        C  0.62116745  0.43125879  0.43875121     0.62300
H210        H  0.66673629  0.40242925  0.42582024     0.13000
H211        H  0.67675177  0.48091844  0.28790671     0.13000
C212        C  0.71680142  0.44632472  0.27243511     0.62500
F213        F  0.61272976  0.39911532  0.46389011    -0.22600
F214        F  0.58686531  0.42592729  0.42242310    -0.20000
F215        F  0.63830281  0.46199607  0.47006130    -0.19600
F216        F  0.70568007  0.40985506  0.25766865    -0.19700
F217        F  0.75564618  0.46652687  0.28253096    -0.20000
F218        F  0.71066466  0.46392553  0.23481013    -0.22700
C219        C  0.44695733  0.85888801  0.16212866    -0.05500
C220        C  0.46037456  0.87730255  0.11803894     0.00400
C221        C  0.45111607  0.85489703  0.07560132    -0.08200
C222        C  0.43306273  0.81502434  0.07923303    -0.05500
C223        C  0.42339139  0.79706853  0.12388001     0.00400
C224        C  0.42842891  0.81898579  0.16577131    -0.08100
C225        C  0.41521021  0.80031908  0.21422104     0.62300
H226        H  0.45439794  0.87629354  0.19432530     0.13000
H227        H  0.42762215  0.79770784  0.04731582     0.13000
C228        C  0.46114064  0.87354060  0.02679944     0.62500
F229        F  0.42553319  0.82680437  0.25094186    -0.22600
F230        F  0.43121228  0.77883460  0.22351690    -0.20000
F231        F  0.37567459  0.77708860  0.21407742    -0.19600
F232        F  0.50050237  0.89675533  0.02154958    -0.19700
F233        F  0.44479276  0.89526564  0.02242756    -0.20000
F234        F  0.44744314  0.84685052  0.98993604    -0.22700
C235        C  0.65744825  0.25280064  0.42095002    -0.05500
C236        C  0.66122056  0.23043369  0.38546730     0.00400
C237        C  0.68848598  0.24897942  0.34821118    -0.08200
C238        C  0.70794947  0.28900478  0.34506412    -0.05500
C239        C  0.70133105  0.31077078  0.37826594     0.00400
C240        C  0.67693275  0.29265303  0.41793406    -0.08100
C241        C  0.67065398  0.31517807  0.45641545     0.62300
H242        H  0.63670864  0.23868010  0.44944773     0.13000
H243        H  0.72755853  0.30339031  0.31556463     0.13000
C244        C  0.69668267  0.22716728  0.31096412     0.62500
F245        F  0.65141506  0.29300800  0.49571527    -0.22600
F246        F  0.64907990  0.32885653  0.43805185    -0.20000
F247        F  0.70559706  0.34540246  0.47216949    -0.19600
F248        F  0.67162494  0.21719971  0.27295481    -0.19700
F249        F  0.69265641  0.19465529  0.33034399    -0.20000
F250        F  0.73395052  0.24918632  0.29397328    -0.22700
C251        C  0.25368924  0.63585429  0.17030080    -0.05500
C252        C  0.23480668  0.62615047  0.12591335     0.00400
C253        C  0.25605389  0.63184197  0.08332569    -0.08200
C254        C  0.29634533  0.65102050  0.08600610    -0.05500
C255        C  0.31540733  0.66431488  0.12997950     0.00400
C256        C  0.29397986  0.65446812  0.17303778    -0.08100
C257        C  0.31387954  0.66435038  0.22129941     0.62300
H258        H  0.23693711  0.63135132  0.20253405     0.13000
H259        H  0.31334746  0.65812455  0.05351524     0.13000
C260        C  0.23609842  0.62014938  0.03508604     0.62500
F261        F  0.28789043  0.65185187  0.25888962    -0.22600
F262        F  0.33816815  0.70323515  0.22599286    -0.20000
F263        F  0.33514677  0.64738032  0.22480456    -0.19600
F264        F  0.22060889  0.64197125  0.02503143    -0.19700
F265        F  0.20692803  0.58222019  0.03615799    -0.20000
F266        F  0.26115875  0.62474184  0.99846758    -0.22700
C267        C  0.84146457  0.45552169  0.33353943    -0.05500
C268        C  0.81952820  0.43718020  0.37439788     0.00400
C269        C  0.83838118  0.43856145  0.41737092    -0.08200
C270        C  0.87844348  0.45476423  0.41657724    -0.05500
C271        C  0.89993089  0.46962525  0.37440518     0.00400
C272        C  0.88158192  0.47144978  0.33271281    -0.08100
C273        C  0.90407199  0.48761970  0.28670482     0.62300
H274        H  0.82659243  0.45468840  0.30122655     0.13000
H275        H  0.89287538  0.45326750  0.44802257     0.13000
C276        C  0.81608961  0.42222998  0.46358720     0.62500
F277        F  0.88167965  0.48917129  0.25109603    -0.22600
F278        F  0.91763780  0.46512605  0.27035638    -0.20000
F279        F  0.93484264  0.52413399  0.29516490    -0.19600
F280        F  0.79284253  0.38310042  0.45970748    -0.19700
F281        F  0.79354127  0.43734821  0.47284972    -0.20000
F282        F  0.84029504  0.43072097  0.50230672    -0.22700
C283        C  0.20990988  0.48090657  0.39976453    -0.05500
C284        C  0.20505103  0.44634224  0.38396051     0.00400
C285        C  0.16939225  0.41717557  0.36542748    -0.08200
C286        C  0.13995072  0.42456135  0.36051650    -0.05500
C287        C  0.14498786  0.45939263  0.37536473     0.00400
C288        C  0.17993290  0.48777917  0.39641516    -0.08100
C289        C  0.18553737  0.52517244  0.41427748     0.62300
H290        H  0.23758653  0.50265753  0.41394793     0.13000
H291        H  0.11236788  0.40285194  0.34602636     0.13000
C292        C  0.16216458  0.37807148  0.35293630     0.62500
F293        F  0.22264319  0.54993763  0.43027241    -0.22600
F294        F  0.16066751  0.51854261  0.45192755    -0.20000
F295        F  0.17817989  0.54256905  0.37760661    -0.19600
F296        F  0.16920287  0.36313686  0.39275702    -0.19700
F297        F  0.18607373  0.38061819  0.31600276    -0.20000
F298        F  0.12458969  0.35304778  0.33872881    -0.22700
C299        C  0.34953309  0.43935289  0.00562632    -0.05500
C300        C  0.37337606  0.47835357  0.01622621     0.00400
C301        C  0.35545117  0.48933742  0.52148045    -0.08200
C302        C  0.32202356  0.47449617  0.49366271    -0.05500
C303        C  0.31025476  0.44303582  0.46318859     0.00400
C304        C  0.32964053  0.42306721  0.46421057    -0.08100
C305        C  0.29134089  0.38268395  0.97030057     0.62300
H306        H  0.35848319  0.41987532  0.01522362     0.13000
H307        H  0.30703372  0.48955684  0.49205432     0.13000
C308        C  0.36804744  0.52424594  0.55302376     0.62500
F309        F  0.28339903  0.36291659  0.01269408    -0.22600
F310        F  0.34310085  0.39728483  0.39607158    -0.20000
F311        F  0.25673845  0.37161191  0.94851428    -0.19600
F312        F  0.40156651  0.55497137  0.53522885    -0.19700
F313        F  0.37420223  0.51715467  0.59932908    -0.20000
F314        F  0.34057226  0.53405363  0.55480798    -0.22700
C315        C  0.36371203  0.49930516  0.24609460    -0.05500
C316        C  0.37434548  0.47285118  0.23488436     0.00400
C317        C  0.35092080  0.43461867  0.25046744    -0.08200
C318        C  0.31923078  0.42525657  0.27975365    -0.05500
C319        C  0.31054590  0.45248498  0.29357138     0.00400
C320        C  0.33209049  0.48977307  0.27553859    -0.08100
C321        C  0.32294683  0.51978533  0.28956089     0.62300
H322        H  0.38103890  0.52797370  0.23255241     0.13000
H323        H  0.30227450  0.39708156  0.29490871     0.13000
C324        C  0.36003176  0.40418009  0.23886141     0.62500
F325        F  0.34762454  0.55432249  0.26793951    -0.22600
F326        F  0.32610139  0.52564030  0.33867221    -0.20000
F327        F  0.28590709  0.50776954  0.27562600    -0.19600
F328        F  0.39732832  0.41671052  0.25222891    -0.19700
F329        F  0.35553623  0.39593818  0.19029542    -0.20000
F330        F  0.33590641  0.37062558  0.26283179    -0.22700
C331        C  0.99913797  0.67146327  0.10388057    -0.05500
C332        C  0.99328769  0.63998916  0.12961555     0.00400
C333        C  0.95900911  0.61755172  0.15576132    -0.08200
C334        C  0.93092257  0.62722276  0.15431342    -0.05500
C335        C  0.93656451  0.65847315  0.12789463     0.00400
C336        C  0.97151891  0.68157494  0.10305564    -0.08100
C337        C  0.98043061  0.71752077  0.07743440     0.62300
H338        H  0.02600041  0.68845678  0.08472254     0.13000
H339        H  0.90401851  0.61009849  0.17328528     0.13000
C340        C  0.95171996  0.58303893  0.18346793     0.62500
F341        F  0.01840067  0.73873155  0.06266892    -0.22600
F342        F  0.97384816  0.74012957  0.10797718    -0.20000
F343        F  0.95754248  0.70822073  0.03730352    -0.19600
F344        F  0.97810747  0.59423726  0.22015270    -0.19700
F345        F  0.95506318  0.55824000  0.15305007    -0.20000
F346        F  0.91533486  0.56367346  0.20353571    -0.22700
C347        C  0.81182468  0.62368643  0.22495012    -0.05500
C348        C  0.83231510  0.66151846  0.20990213     0.00400
C349        C  0.82144054  0.68702284  0.22573473    -0.08200
C350        C  0.78768237  0.67275858  0.25274027    -0.05500
C351        C  0.76470869  0.63391366  0.26362300     0.00400
C352        C  0.77792965  0.60918670  0.25186427    -0.08100
C353        C  0.75662412  0.56777427  0.26703046     0.62300
H354        H  0.82090100  0.60478484  0.21214696     0.13000
H355        H  0.77809440  0.69163849  0.26368552     0.13000
C356        C  0.84514734  0.72890879  0.21325589     0.62500
F357        F  0.77788386  0.55118479  0.25788583    -0.22600
F358        F  0.72251791  0.54723343  0.24203739    -0.20000
F359        F  0.74908506  0.56522941  0.31571595    -0.19600
F360        F  0.84167536  0.73362563  0.16503241    -0.20100
F361        F  0.88335965  0.74323317  0.22375630    -0.20000
F362        F  0.83345734  0.74987958  0.23907239    -0.22700
C363        C  0.76891709  0.59821373  0.47934536    -0.05500
C364        C  0.75762536  0.62488603  0.48093264     0.00400
C365        C  0.79680717  0.68699559  0.00442865    -0.08200
C366        C  0.82824300  0.69530949  0.03335338    -0.05500
C367        C  0.83887738  0.66859599  0.04038831     0.00400
C368        C  0.81976434  0.63355135  0.01499560    -0.08100
C369        C  0.83207915  0.60489882  0.01889082     0.62300
H370        H  0.75285295  0.57299922  0.45702152     0.13000
H371        H  0.84349086  0.72197669  0.05313786     0.13000
C372        C  0.78617563  0.71669438  0.99810933     0.62500
F373        F  0.78356251  0.54095634  0.47862312    -0.22600
F374        F  0.82827142  0.59277818  0.06568279    -0.20000
F375        F  0.84472046  0.58449395  0.49619443    -0.19600
F376        F  0.74836287  0.70195278  0.01154808    -0.19700
F377        F  0.77321793  0.70601353  0.46869748    -0.20000
F378        F  0.80903427  0.74901111  0.02563550    -0.22700
C379        C  0.68487600  0.78091773  0.40021415    -0.05500
C380        C  0.65474834  0.78297439  0.38047033     0.00400
C381        C  0.62264618  0.74970422  0.36056899    -0.08200
C382        C  0.62270522  0.71574489  0.35972090    -0.05500
C383        C  0.65332729  0.71381044  0.37838208     0.00400
C384        C  0.68491149  0.74697041  0.39977168    -0.08100
C385        C  0.71830172  0.74691801  0.42312269     0.62300
H386        H  0.70888694  0.80658952  0.41563127     0.13000
H387        H  0.59872146  0.69029483  0.34389395     0.13000
C388        C  0.58769194  0.74932572  0.34211768     0.62500
F389        F  0.74243999  0.78061383  0.44756439    -0.22600
F390        F  0.74000992  0.74245832  0.38847593    -0.20000
F391        F  0.70456079  0.71769388  0.45580485    -0.19600
F392        F  0.59698729  0.77059186  0.30089227    -0.19700
F393        F  0.57478329  0.76418161  0.37679378    -0.20000
F394        F  0.55772403  0.71283267  0.33122391    -0.22700
C395        C  0.69533500  0.93412420  0.47166802    -0.05500
C396        C  0.67334161  0.89419744  0.47337023     0.00400
C397        C  0.64417460  0.87610203  0.50830624    -0.08200
C398        C  0.63559964  0.89867298  0.53718956    -0.05500
C399        C  0.65054068  0.93625046  0.03463096     0.00400
C400        C  0.68905272  0.95628859  0.01831342    -0.08100
C401        C  0.71668617  0.99810761  0.03015459     0.62300
H402        H  0.71749610  0.94719511  0.44445940     0.13000
H403        H  0.61230125  0.88482700  0.56275613     0.13000
C404        C  0.61957670  0.83302312  0.51196593     0.62500
F405        F  0.75400823  0.00994174  0.01707091    -0.22600
F406        F  0.71627701  0.00422161  0.07897932    -0.20000
F407        F  0.70622881  0.02017490  0.00595954    -0.19600
F408        F  0.64286260  0.81859375  0.51873235    -0.19700
F409        F  0.59843278  0.81766359  0.47043719    -0.20000
F410        F  0.59404151  0.82152548  0.55000750    -0.22700
C411        C  0.66232584  0.90129865  0.27213008    -0.05500
C412        C  0.63787215  0.88211610  0.31060364     0.00400
C413        C  0.60456482  0.88372834  0.31855523    -0.08200
C414        C  0.59768945  0.90620977  0.28840605    -0.05500
C415        C  0.62340437  0.92736211  0.25178316     0.00400
C416        C  0.65542485  0.92390942  0.24196091    -0.08100
C417        C  0.68150832  0.94321158  0.19929112     0.62300
H418        H  0.68769955  0.89972093  0.26722819     0.13000
H419        H  0.57278438  0.90847301  0.29417096     0.13000
C420        C  0.57706999  0.86283634  0.35970391     0.62500
F421        F  0.71005438  0.93495393  0.19547680    -0.22600
F422        F  0.69897811  0.98218747  0.20365958    -0.20000
F423        F  0.66011091  0.93090445  0.15766100    -0.19600
F424        F  0.59384075  0.88042640  0.40280495    -0.19700
F425        F  0.56786726  0.82556119  0.36043002    -0.20000
F426        F  0.54321198  0.86236315  0.35529388    -0.22700
C427        C  0.79934562  0.15290031  0.14968964    -0.05500
C428        C  0.80894144  0.17682092  0.11002436     0.00400
C429        C  0.77951991  0.17036462  0.07749227    -0.08200
C430        C  0.74173821  0.14023508  0.08624948    -0.05500
C431        C  0.73216464  0.11610658  0.12565637     0.00400
C432        C  0.76162134  0.12230892  0.15795223    -0.08100
C433        C  0.75405515  0.09621675  0.19993288     0.62300
H434        H  0.82203315  0.15822027  0.17419573     0.13000
H435        H  0.71908200  0.13502808  0.06177254     0.13000
C436        C  0.78716399  0.19525466  0.03416669     0.62500
F437        F  0.78758434  0.10522447  0.22316890    -0.22600
F438        F  0.73675354  0.05901725  0.18370489    -0.20000
F439        F  0.73050348  0.09925878  0.23308271    -0.19600
F440        F  0.80975674  0.19030015  0.00145862    -0.19700
F441        F  0.80535451  0.23299116  0.04845612    -0.20000
F442        F  0.75362228  0.18625538  0.01096570    -0.22700
C443        C  0.96296472  0.30736371  0.18697175    -0.05500
C444        C  0.92261700  0.28689506  0.18543886     0.00400
C445        C  0.90242912  0.29799279  0.21608886    -0.08200
C446        C  0.92366214  0.33105290  0.24421247    -0.05500
C447        C  0.96417723  0.35365062  0.24292900     0.00400
C448        C  0.98434962  0.34048170  0.21527714    -0.08100
C449        C  0.02794758  0.36095994  0.21442459     0.62300
H450        H  0.97774480  0.29798668  0.16369538     0.13000
H451        H  0.90819137  0.33998809  0.26677179     0.13000
C452        C  0.85875650  0.27654517  0.21770189     0.62500
F453        F  0.04076377  0.34225738  0.18576067    -0.22600
F454        F  0.04152823  0.36299703  0.26026204    -0.20000
F455        F  0.04343267  0.39719453  0.19648787    -0.19600
F456        F  0.84431818  0.23941350  0.23153792    -0.19700
F457        F  0.84455884  0.27686029  0.17304834    -0.20000
F458        F  0.84542729  0.29261283  0.25013933    -0.22700
C459        C  0.97438977  0.32936365  0.98156177    -0.05500
C460        C  0.95933131  0.34080731  0.45819754     0.00400
C461        C  0.91031127  0.31596069  0.96279474    -0.08200
C462        C  0.89490874  0.28253064  0.98970132    -0.05500
C463        C  0.91854194  0.27386335  0.01513944     0.00400
C464        C  0.95864246  0.29558385  0.00752019    -0.08100
C465        C  0.98568491  0.28471394  0.02779965     0.62300
H466        H  0.01259231  0.35462181  0.49174534     0.13000
H467        H  0.86428880  0.26510040  0.99518347     0.13000
C468        C  0.89436947  0.31320946  0.41338047     0.62500
F469        F  0.00947356  0.28552408  0.99170772    -0.22600
F470        F  0.96619614  0.24845988  0.04667042    -0.20000
F471        F  0.00797640  0.31045891  0.06332678    -0.19600
F472        F  0.91057223  0.31791044  0.36832309    -0.19700
F473        F  0.88932096  0.34305086  0.42403509    -0.20000
F474        F  0.84484424  0.29891855  0.95061427    -0.22700
C475        C  0.39646147  0.94844757  0.34256618    -0.05500
C476        C  0.40462279  0.97528255  0.37907927     0.00400
C477        C  0.37552751  0.96964365  0.41184349    -0.08200
C478        C  0.33852359  0.93775137  0.40567285    -0.05500
C479        C  0.32977632  0.91166015  0.36805745     0.00400
C480        C  0.35918166  0.91647939  0.33624898    -0.08100
C481        C  0.35152187  0.88819861  0.29611657     0.62300
H482        H  0.41928645  0.95342255  0.31807535     0.13000
H483        H  0.31576588  0.93313321  0.43007528     0.13000
C484        C  0.38345537  0.99684337  0.45357141     0.62500
F485        F  0.38520486  0.89520910  0.27461172    -0.22600
F486        F  0.32922832  0.89082220  0.26142428    -0.20000
F487        F  0.33264823  0.85157989  0.31378814    -0.19600
F488        F  0.38878082  0.03053688  0.43671776    -0.19700
F489        F  0.41598471  0.00417450  0.47789387    -0.20000
F490        F  0.35329733  0.98196369  0.48597989    -0.22700
C491        C  0.18863394  0.79146978  0.46694519    -0.05500
C492        C  0.22500004  0.80183375  0.44972719     0.00400
C493        C  0.24211563  0.78145128  0.46362464    -0.08200
C494        C  0.22030373  0.74870627  0.49105894    -0.05500
C495        C  0.16732049  0.73078072  0.98924722     0.00400
C496        C  0.15028922  0.75167709  0.97593302    -0.08100
C497        C  0.11072996  0.74146782  0.99339994     0.62300
H498        H  0.17642037  0.80782059  0.45565466     0.13000
H499        H  0.23235549  0.73179589  0.50023219     0.13000
C500        C  0.28246984  0.79319254  0.44778705     0.62500
F501        F  0.10137633  0.76731521  0.97830197    -0.22600
F502        F  0.10964571  0.74115301  0.04295961    -0.20000
F503        F  0.08314666  0.70604896  0.97561577    -0.19600
F504        F  0.30840328  0.82942455  0.46492587    -0.19700
F505        F  0.28452749  0.79283131  0.39829646    -0.20000
F506        F  0.29326878  0.76899740  0.46506316    -0.22700
C507        C  0.23397666  0.81094035  0.24605609    -0.05500
C508        C  0.21257822  0.81494740  0.28232318     0.00400
C509        C  0.17211153  0.79066854  0.28234238    -0.08200
C510        C  0.15522492  0.75872422  0.25194814    -0.05500
C511        C  0.17727530  0.75149263  0.21982554     0.00400
C512        C  0.21721126  0.77961031  0.21434979    -0.08100
C513        C  0.24310444  0.77618876  0.17777243     0.62300
H514        H  0.26476419  0.83027729  0.24601496     0.13000
H515        H  0.12447323  0.73879389  0.25425497     0.13000
C516        C  0.14595966  0.79639279  0.31542456     0.62500
F517        F  0.28072197  0.80663635  0.18034891    -0.22600
F518        F  0.23015332  0.77540299  0.13191005    -0.20000
F519        F  0.24346273  0.74346133  0.18577939    -0.19600
F520        F  0.16506990  0.83147336  0.33841348    -0.19700
F521        F  0.13032770  0.76805523  0.34942466    -0.20000
F522        F  0.11649467  0.79431421  0.28902396    -0.22700
C523        C  0.45607744  0.32694883  0.10961877    -0.05500
C524        C  0.48622921  0.32755442  0.13381784     0.00400
C525        C  0.51663002  0.36262905  0.15239400    -0.08200
C526        C  0.51619614  0.39599644  0.14499090    -0.05500
C527        C  0.48556001  0.39545314  0.12196298     0.00400
C528        C  0.45437789  0.35992555  0.10455580    -0.08100
C529        C  0.41910486  0.35610295  0.08117703     0.62300
H530        H  0.43297644  0.29981932  0.09602523     0.13000
H531        H  0.53929208  0.42281855  0.15926913     0.13000
C532        C  0.54889935  0.36494410  0.18123415     0.62500
F533        F  0.39485754  0.31997462  0.06231268    -0.22600
F534        F  0.43004111  0.38169299  0.04413800    -0.20000
F535        F  0.39838024  0.36285829  0.11490085    -0.19600
F536        F  0.56473429  0.34716329  0.15671273    -0.19700
F537        F  0.53432682  0.34748052  0.22469013    -0.20000
F538        F  0.57799736  0.40218975  0.19043778    -0.22700
C539        C  0.45725235  0.19286549  0.24184321    -0.05500
C540        C  0.48958137  0.22729821  0.22708327     0.00400
C541        C  0.52643480  0.23717179  0.24269906    -0.08200
C542        C  0.52997068  0.21084664  0.26967691    -0.05500
C543        C  0.49801269  0.17498983  0.28124714     0.00400
C544        C  0.46062359  0.16638194  0.26908937    -0.08100
C545        C  0.42456517  0.12893674  0.28232825     0.62300
H546        H  0.42939888  0.18571270  0.22869453     0.13000
H547        H  0.55817685  0.21784789  0.28108228     0.13000
C548        C  0.56203913  0.27483414  0.22954117     0.62500
F549        F  0.39191628  0.12517721  0.26235869    -0.22600
F550        F  0.41982621  0.12697334  0.33154512    -0.20000
F551        F  0.42739434  0.09877934  0.26601720    -0.19600
F552        F  0.55874277  0.30406052  0.24801336    -0.19700
F553        F  0.56605259  0.27809670  0.18029289    -0.20000
F554        F  0.59513072  0.27867631  0.24811387    -0.22700
C555        C  0.44851652  0.17445444  0.05763950    -0.05500
C556        C  0.47629385  0.21366726  0.05717657     0.00400
C557        C  0.50797008  0.22769308  0.02558002    -0.08200
C558        C  0.52306199  0.20727996  0.50082561    -0.05500
C559        C  0.49631001  0.16787496  0.50186127     0.00400
C560        C  0.45264742  0.14819605  0.02980017    -0.08100
C561        C  0.42329264  0.10588464  0.03392706     0.62300
H562        H  0.42477120  0.16433213  0.08261483     0.13000
H563        H  0.54819984  0.21782013  0.47813823     0.13000
C564        C  0.54937326  0.27489473  0.52969813     0.62500
F565        F  0.39567593  0.09837168  0.06833368    -0.22600
F566        F  0.44140848  0.08696516  0.04650269    -0.20000
F567        F  0.40481156  0.09175850  0.99056035    -0.19600
F568        F  0.55586723  0.28214889  0.06829837    -0.19700
F569        F  0.52225618  0.29020704  0.01116269    -0.20000
F570        F  0.57833174  0.28314489  0.49713624    -0.22700
C571        C  0.49313578  0.29375198  0.64102987     0.80500
N572        N  0.49326452  0.27900836  0.68443923    -0.77800
C573        C  0.48914285  0.24421058  0.68609981     0.82900
N574        N  0.48559578  0.22496806  0.64525796    -0.77800
C575        C  0.48596150  0.23940838  0.60228947     0.83000
N576        N  0.48950041  0.27385792  0.59994885    -0.79500
C577        C  0.27992362  0.87517902  0.85700181     0.80500
N578        N  0.26126725  0.86667585  0.81421114    -0.77800
C579        C  0.22410103  0.83715420  0.81076520     0.82900
N580        N  0.20654055  0.81567479  0.84972415    -0.77800
C581        C  0.22502744  0.82331404  0.89193723     0.83000
N582        N  0.26165426  0.85318536  0.89563582    -0.79500
C583        C  0.84809635  0.22013356  0.60448986     0.80500
N584        N  0.86844452  0.22936367  0.56279584    -0.77800
C585        C  0.90551031  0.25922820  0.56196771     0.82900
N586        N  0.92115808  0.28004835  0.60231215    -0.77800
C587        C  0.90102056  0.27129381  0.64342284     0.83000
N588        N  0.86442123  0.24143103  0.64461305    -0.79500
C589        C  0.68714115  0.84037286  0.88224970     0.80500
N590        N  0.68945239  0.86095007  0.84294139    -0.77800
C591        C  0.69021056  0.89416598  0.84847799     0.82900
N592        N  0.68810321  0.90578332  0.89316357    -0.77800
C593        C  0.68500703  0.88560138  0.93205860     0.83000
N594        N  0.68394916  0.85250805  0.92666275    -0.79500
C595        C  0.88941013  0.63128293  0.61378165     0.80500
N596        N  0.87164519  0.63260412  0.57371362    -0.77800
C597        C  0.84146401  0.63724911  0.57789437     0.82900
N598        N  0.82944614  0.64073434  0.62163892    -0.77800
C599        C  0.84676880  0.63914493  0.66145524     0.83000
N600        N  0.87641422  0.63362111  0.65788552    -0.79500
C601        C  0.23717531  0.44662713  0.87630538     0.80500
N602        N  0.25159104  0.44562271  0.91961850    -0.77800
C603        C  0.28342131  0.44361868  0.92186934     0.82900
N604        N  0.30157474  0.44394197  0.88124924    -0.77800
C605        C  0.28836886  0.44619926  0.83822376     0.83000
N606        N  0.25639255  0.44799870  0.83567075    -0.79500
Zn607      Zn  0.03898533  0.45862373  0.92817971     1.49700
Zn608      Zn  0.02194852  0.51688764  0.87095048     1.49400
Zn609      Zn  0.04676826  0.46439342  0.81437283     1.49100
Zn610      Zn  0.96794989  0.42749949  0.86162055     1.49500
O611        O  0.01995922  0.46859961  0.86956022    -1.83900
O612        O  0.05193528  0.49934338  0.97823145    -0.74500
O613        O  0.04942848  0.54611438  0.80663082    -0.74300
O614        O  0.09364249  0.46549189  0.83480039    -0.73800
O615        O  0.04782066  0.54305785  0.93696153    -0.74500
O616        O  0.08702115  0.45933398  0.91366659    -0.74100
O617        O  0.06114681  0.50603800  0.76703596    -0.74700
O618        O  0.95690002  0.40474472  0.79744086    -0.74100
O619        O  0.96597844  0.50647027  0.87260290    -0.74800
O620        O  0.01409543  0.41465831  0.77989616    -0.74200
O621        O  0.93158695  0.44322917  0.87406622    -0.74700
O622        O  0.95462102  0.38393825  0.90292050    -0.74600
O623        O  0.00248199  0.40573446  0.95425660    -0.74400
C624        C  0.05573721  0.53189173  0.97570952     0.77400
C625        C  0.06126799  0.53683770  0.76889233     0.77900
C626        C  0.10524440  0.46204902  0.87541021     0.76800
C627        C  0.97795112  0.39608008  0.77424767     0.77200
C628        C  0.93370734  0.47485828  0.87552195     0.78400
C629        C  0.97025618  0.37885478  0.93840695     0.77400
Zn630      Zn  0.09043662  0.62972864  0.56196722     1.49700
Zn631      Zn  0.10991709  0.57544579  0.62058464     1.49400
Zn632      Zn  0.16413627  0.66416497  0.61781584     1.49100
Zn633      Zn  0.08836408  0.63215381  0.67597327     1.49500
O634        O  0.11189992  0.62336820  0.61984933    -1.83900
O635        O  0.07903935  0.58920048  0.51292795    -0.74500
O636        O  0.16617195  0.58663574  0.62003702    -0.74300
O637        O  0.18073925  0.69014141  0.55594637    -0.73800
O638        O  0.08273786  0.54603422  0.55570359    -0.74500
O639        O  0.12517036  0.68136741  0.53413654    -0.74100
O640        O  0.20008613  0.64914364  0.63356300    -0.74700
O641        O  0.12049838  0.68734537  0.70072288    -0.74100
O642        O  0.08397112  0.55023262  0.68703025    -0.74800
O643        O  0.17323534  0.70601945  0.65927464    -0.74200
O644        O  0.07753493  0.59364079  0.72768120    -0.74700
O645        O  0.03794143  0.62439844  0.65636310    -0.74600
O646        O  0.04136398  0.62592238  0.57667230    -0.74400
C647        C  0.07492770  0.55662108  0.51633407     0.77400
C648        C  0.19815879  0.61784061  0.62779822     0.77900
C649        C  0.16158233  0.70077652  0.53299052     0.76800
C650        C  0.15456672  0.71326168  0.68889880     0.77200
C651        C  0.07508279  0.56159089  0.72561596     0.78400
C652        C  0.02399708  0.62359280  0.61554989     0.77400
Zn653      Zn  0.47883428  0.08815363  0.88745509     1.49700
Zn654      Zn  0.55685362  0.12047578  0.82889122     1.49400
Zn655      Zn  0.55681670  0.12134559  0.94326494     1.49100
Zn656      Zn  0.52280307  0.04171681  0.88378562     1.49500
O657        O  0.52903623  0.09232461  0.88593700    -1.83900
O658        O  0.47414365  0.11929793  0.83714940    -0.74500
O659        O  0.60677057  0.16884051  0.84643987    -0.74300
O660        O  0.52895052  0.14390849  0.97488521    -0.73800
O661        O  0.52959649  0.14288346  0.79923623    -0.74500
O662        O  0.47001942  0.11155220  0.94548271    -0.74100
O663        O  0.60737880  0.16954621  0.92584003    -0.74700
O664        O  0.54409808  0.03421135  0.94851366    -0.74100
O665        O  0.56308153  0.08760750  0.77890282    -0.74800
O666        O  0.56160902  0.08700406  0.99135847    -0.74200
O667        O  0.54644645  0.03497254  0.81936091    -0.74700
O668        O  0.46500206  0.00110742  0.88108584    -0.74600
O669        O  0.43647991  0.03440422  0.88190732    -0.74400
C670        C  0.49839958  0.14173180  0.80672251     0.77400
C671        C  0.62160651  0.18594816  0.88593163     0.77900
C672        C  0.49493359  0.13716039  0.97305239     0.76800
C673        C  0.55608822  0.05363325  0.98782773     0.77200
C674        C  0.55858714  0.05471569  0.78082953     0.78400
C675        C  0.43479626  0.00288074  0.88063911     0.77400
Zn676      Zn  0.63230894  0.03283201  0.68967600     1.49700
Zn677      Zn  0.55165939  0.00410753  0.63350522     1.49400
Zn678      Zn  0.62865788  0.02501652  0.57476788     1.49100
Zn679      Zn  0.59100713  0.95440017  0.64324914     1.49500
O680        O  0.60009294  0.00478691  0.63476730    -1.83900
O681        O  0.60171698  0.04222094  0.73957843    -0.74500
O682        O  0.55158554  0.03248786  0.56962226    -0.74300
O683        O  0.67810712  0.07372819  0.58880772    -0.73800
O684        O  0.54877145  0.02893830  0.69988213    -0.74500
O685        O  0.67775987  0.08201082  0.66772631    -0.74100
O686        O  0.59957100  0.03636375  0.52631739    -0.74700
O687        O  0.61719598  0.94168090  0.59409226    -0.74100
O688        O  0.50591030  0.94659047  0.62982232    -0.74800
O689        O  0.64399238  0.99019279  0.54486541    -0.74200
O690        O  0.53664637  0.91593902  0.63922699    -0.74700
O691        O  0.61165905  0.94607418  0.70225417    -0.74600
O692        O  0.65579955  0.00538232  0.72026709    -0.74400
C693        C  0.56980332  0.04062013  0.73796491     0.77400
C694        C  0.57112708  0.04069719  0.53026724     0.77900
C695        C  0.69382534  0.09271418  0.62693596     0.76800
C696        C  0.63778302  0.95808309  0.55771853     0.77200
C697        C  0.50596427  0.91568129  0.63320128     0.78400
C698        C  0.64228280  0.96992621  0.72390283     0.77400
C699        C  0.71319885  0.40611823  0.87400044     0.80500
N700        N  0.75222984  0.42769338  0.87468608    -0.77800
C701        C  0.77309997  0.41099368  0.87781757     0.82900
N702        N  0.75467485  0.37239144  0.88010296    -0.77800
C703        C  0.71565574  0.35056560  0.88003191     0.83000
N704        N  0.69498479  0.36760011  0.87716591    -0.79500
C705        C  0.42158038  0.70337666  0.62429292     0.80500
N706        N  0.38296687  0.67862048  0.62529706    -0.77800
C707        C  0.35866092  0.69149239  0.62567776     0.82900
N708        N  0.37315237  0.72969440  0.62556634    -0.77800
C709        C  0.41187522  0.75482585  0.62499949     0.83000
N710        N  0.43599986  0.74148652  0.62447988    -0.79500
Zn711      Zn  0.44932708  0.47241033  0.62691718     1.49700
Zn712      Zn  0.54011507  0.52123626  0.62659758     1.49400
Zn713      Zn  0.49137939  0.55132979  0.57212362     1.49100
Zn714      Zn  0.49194801  0.55053387  0.68511293     1.49500
O715        O  0.49411935  0.52439605  0.62767301    -1.83900
O716        O  0.46249580  0.43283099  0.62893928    -0.74500
O717        O  0.56688111  0.54072978  0.55978963    -0.74300
O718        O  0.43907006  0.52015330  0.54318549    -0.73800
O719        O  0.52585752  0.46574208  0.62794559    -0.74500
O720        O  0.41533748  0.46211710  0.57155676    -0.74100
O721        O  0.53012504  0.55698038  0.52125084    -0.74700
O722        O  0.49358910  0.59870428  0.66924565    -0.74100
O723        O  0.57015078  0.54512621  0.69087423    -0.74800
O724        O  0.49337222  0.60053088  0.59018173    -0.74200
O725        O  0.53292810  0.55979129  0.73284405    -0.74700
O726        O  0.44056253  0.51920647  0.71687687    -0.74600
O727        O  0.41353079  0.46318323  0.68013715    -0.74400
C728        C  0.49393166  0.43390525  0.62855639     0.77400
C729        C  0.55783068  0.55121161  0.52149607     0.77900
C730        C  0.41248198  0.48534970  0.54553131     0.76800
C731        C  0.49119040  0.61364436  0.63101793     0.77200
C732        C  0.56203194  0.55639688  0.72995667     0.78400
C733        C  0.41256118  0.48516257  0.71126474     0.77400
Zn734      Zn  0.61126446  0.60267618  0.87514506     1.49700
Zn735      Zn  0.70300141  0.64530003  0.86944580     1.49400
Zn736      Zn  0.65780651  0.57179012  0.93431315     1.49100
Zn737      Zn  0.65086833  0.56300290  0.82185116     1.49500
O738        O  0.65498582  0.59563317  0.87573796    -1.83900
O739        O  0.63094131  0.66004824  0.87310257    -0.74500
O740        O  0.73880340  0.65728333  0.92366202    -0.74300
O741        O  0.61567250  0.56362157  0.98108829    -0.73800
O742        O  0.69421741  0.68805855  0.86445462    -0.74500
O743        O  0.58087039  0.58084973  0.93969853    -0.74100
O744        O  0.71004159  0.60385582  0.96500995    -0.74700
O745        O  0.64395134  0.51285876  0.84177342    -0.74100
O746        O  0.73558591  0.64584758  0.81595073    -0.74800
O747        O  0.65581323  0.52271739  0.91930686    -0.74200
O748        O  0.70106320  0.58657398  0.78936019    -0.74700
O749        O  0.61241041  0.55709729  0.77239534    -0.74600
O750        O  0.58067715  0.57977085  0.81100963    -0.74400
C751        C  0.66430690  0.68989765  0.86793534     0.77400
C752        C  0.73907625  0.63683088  0.95675152     0.77900
C753        C  0.58719660  0.56808211  0.97809186     0.76800
C754        C  0.65127902  0.50321858  0.88154348     0.77200
C755        C  0.73216411  0.61861259  0.79038919     0.78400
C756        C  0.58631866  0.56500603  0.77338879     0.77400
C757        C  0.48406660  0.66363968  0.59154845    -0.05500
C758        C  0.48134246  0.64392871  0.63379015     0.00400
C759        C  0.46378356  0.64951967  0.67510721    -0.08200
C760        C  0.44665261  0.67119834  0.67070803    -0.05500
C761        C  0.44700972  0.68813310  0.62765483     0.00400
C762        C  0.46732613  0.68587911  0.58794905    -0.08100
C763        C  0.46981257  0.70574385  0.54159656     0.62300
H764        H  0.49797073  0.66017512  0.56045931     0.13000
H765        H  0.43112436  0.67383763  0.70059889     0.13000
C766        C  0.46092902  0.63155056  0.72340554     0.62500
F767        F  0.49089648  0.70026965  0.50699320    -0.22600
F768        F  0.48741716  0.74443070  0.55015374    -0.20000
F769        F  0.43331115  0.69187577  0.52380736    -0.19600
F770        F  0.49722080  0.64226002  0.73915765    -0.19700
F771        F  0.43821913  0.59239854  0.71940859    -0.20000
F772        F  0.44459881  0.64285794  0.75825143    -0.22700
C773        C  0.68344828  0.43535951  0.91991894    -0.05500
C774        C  0.69108270  0.42508010  0.87518345     0.00400
C775        C  0.68045083  0.43572138  0.83312733    -0.08200
C776        C  0.66419582  0.45832824  0.83724517    -0.05500
C777        C  0.65933688  0.47168742  0.88202454     0.00400
C778        C  0.66784494  0.45857158  0.92446988    -0.08100
C779        C  0.66201633  0.46952938  0.97463176     0.62300
H780        H  0.69172458  0.42650219  0.95152735     0.13000
H781        H  0.65746293  0.46767586  0.80485399     0.13000
C782        C  0.68773354  0.42437877  0.78412369     0.62500
F783        F  0.66602895  0.44835230  0.00944210    -0.22600
F784        F  0.62541344  0.46311305  0.97895374    -0.20000
F785        F  0.68903620  0.50745149  0.98379854    -0.19600
F786        F  0.66963824  0.38520890  0.78102980    -0.19700
F787        F  0.72678302  0.44056098  0.77734045    -0.20000
F788        F  0.67399144  0.43625302  0.74755797    -0.22700
C789        C  0.45887381  0.85644237  0.67264893    -0.05500
C790        C  0.47085176  0.87728222  0.63007637     0.00400
C791        C  0.45918060  0.85753121  0.58559429    -0.08200
C792        C  0.43734479  0.81728443  0.58516994    -0.05500
C793        C  0.42811660  0.79654891  0.62780988     0.00400
C794        C  0.43819266  0.81634974  0.67230316    -0.08100
C795        C  0.42867273  0.79512833  0.71918531     0.62300
H796        H  0.46901944  0.87194147  0.70628531     0.13000
H797        H  0.42952098  0.80174219  0.55144124     0.13000
C798        C  0.47225854  0.87918885  0.53891612     0.62500
F799        F  0.44112317  0.81955364  0.75844827    -0.22600
F800        F  0.44600709  0.77415078  0.72066234    -0.20000
F801        F  0.38938414  0.77098725  0.72290173    -0.19600
F802        F  0.51182760  0.89797323  0.53505597    -0.19700
F803        F  0.46130763  0.90557414  0.53804176    -0.20000
F804        F  0.45636947  0.85524749  0.49951325    -0.22700
C805        C  0.65467522  0.24934751  0.92655215    -0.05500
C806        C  0.65230230  0.22756162  0.88587373     0.00400
C807        C  0.67500481  0.24704878  0.84495898    -0.08200
C808        C  0.69625920  0.28729245  0.84504137    -0.05500
C809        C  0.69576515  0.30855460  0.88430971     0.00400
C810        C  0.67605405  0.28945873  0.92651474    -0.08100
C811        C  0.67793024  0.31146596  0.97151678     0.62300
H812        H  0.63799467  0.23477072  0.95801824     0.13000
H813        H  0.71234099  0.30254078  0.81349819     0.13000
C814        C  0.67682907  0.22601441  0.80097543     0.62500
F815        F  0.65821668  0.28756727  0.00936195    -0.22600
F816        F  0.66204213  0.33312600  0.96301693    -0.20000
F817        F  0.71581852  0.33516974  0.98514648    -0.19600
F818        F  0.64345118  0.21142075  0.77459976    -0.19700
F819        F  0.68158892  0.19675374  0.81467203    -0.20000
F820        F  0.70739598  0.24983428  0.77151842    -0.22700
C821        C  0.25578053  0.62922194  0.66954328    -0.05500
C822        C  0.23560385  0.62090784  0.62626647     0.00400
C823        C  0.25614384  0.63041924  0.58242865    -0.08200
C824        C  0.29660036  0.65220197  0.58341914    -0.05500
C825        C  0.31666184  0.66396462  0.62689314     0.00400
C826        C  0.29625678  0.65013686  0.67051389    -0.08100
C827        C  0.31725332  0.65869553  0.71782664     0.62300
H828        H  0.23965798  0.62200937  0.70276367     0.13000
H829        H  0.31277268  0.66192960  0.55029372     0.13000
C830        C  0.23508495  0.62016164  0.53492430     0.62500
F831        F  0.29214984  0.64207418  0.75594039    -0.22600
F832        F  0.33868970  0.69748297  0.72582977    -0.20000
F833        F  0.34144111  0.64483709  0.71654939    -0.19600
F834        F  0.21793710  0.64103289  0.52917770    -0.19700
F835        F  0.20707665  0.58180207  0.53400987    -0.20000
F836        F  0.25966360  0.62745865  0.49663238    -0.22700
C837        C  0.83697520  0.45720395  0.84233576    -0.05500
C838        C  0.81555717  0.43472413  0.88145617     0.00400
C839        C  0.83501999  0.43449254  0.92296804    -0.08200
C840        C  0.87529954  0.45355501  0.92203309    -0.05500
C841        C  0.89654227  0.47231048  0.88096931     0.00400
C842        C  0.87747028  0.47582352  0.84121548    -0.08100
C843        C  0.89978799  0.49744201  0.79710371     0.62300
H844        H  0.82162696  0.45809475  0.81150379     0.13000
H845        H  0.89035640  0.45091194  0.95197268     0.13000
C846        C  0.81336221  0.41314041  0.96760017     0.62500
F847        F  0.87616525  0.49868647  0.76301640    -0.22600
F848        F  0.91772268  0.48019147  0.77656449    -0.20000
F849        F  0.92728577  0.53441480  0.81004819    -0.19600
F850        F  0.79405649  0.37441629  0.95874769    -0.19700
F851        F  0.78731445  0.42331110  0.98071550    -0.20000
F852        F  0.83784988  0.42122979  0.00589523    -0.22700
C853        C  0.19726323  0.46841108  0.91351539    -0.05500
C854        C  0.20319288  0.45025473  0.87441429     0.00400
C855        C  0.17645550  0.43570341  0.83605823    -0.08200
C856        C  0.14524004  0.44072798  0.83817183    -0.05500
C857        C  0.13944075  0.45895171  0.87717460     0.00400
C858        C  0.16564444  0.47280932  0.91596580    -0.08100
C859        C  0.16099892  0.49265697  0.95945480     0.62300
H860        H  0.21784251  0.47935273  0.94253245     0.13000
H861        H  0.12460784  0.42992828  0.80918186     0.13000
C862        C  0.17982984  0.41431808  0.79337656     0.62500
F863        F  0.19256516  0.50807092  0.98948922    -0.22600
F864        F  0.12922685  0.46686956  0.98580202    -0.20000
F865        F  0.15665494  0.52198125  0.94488080    -0.19600
F866        F  0.18534341  0.38596665  0.80898044    -0.19700
F867        F  0.21025170  0.43929539  0.76464721    -0.20000
F868        F  0.14704483  0.39716749  0.76535565    -0.22700
C869        C  0.36295134  0.43789030  0.49169281    -0.05500
C870        C  0.37687097  0.47139956  0.51856198     0.00400
C871        C  0.36026890  0.50330581  0.00661481    -0.08200
C872        C  0.32558146  0.48866885  0.98168985    -0.05500
C873        C  0.30440724  0.45062315  0.96634963     0.00400
C874        C  0.31495311  0.42500317  0.98113759    -0.08100
C875        C  0.31784594  0.38771849  0.43411541     0.62300
H876        H  0.37894656  0.42375353  0.49101312     0.13000
H877        H  0.31682998  0.50774844  0.96959761     0.13000
C878        C  0.38260573  0.54511144  0.02144985     0.62500
F879        F  0.31921436  0.36092835  0.46166037    -0.22600
F880        F  0.31208494  0.37293618  0.94060234    -0.20000
F881        F  0.28087219  0.37110252  0.41655709    -0.19600
F882        F  0.41611808  0.56464418  0.99498450    -0.19700
F883        F  0.39135776  0.54866558  0.06974413    -0.20000
F884        F  0.36172735  0.56213894  0.01385669    -0.22700
C885        C  0.36511939  0.49769098  0.74596334    -0.05500
C886        C  0.37725094  0.47194120  0.73938353     0.00400
C887        C  0.35566692  0.43512135  0.75941737    -0.08200
C888        C  0.32371560  0.42634518  0.78794128    -0.05500
C889        C  0.31311869  0.45300449  0.79677104     0.00400
C890        C  0.33353966  0.48909019  0.77496776    -0.08100
C891        C  0.32364420  0.51920685  0.78461647     0.62300
H892        H  0.38123370  0.52511898  0.72892803     0.13000
H893        H  0.30782279  0.39919430  0.80586164     0.13000
C894        C  0.36721962  0.40594891  0.75304998     0.62500
F895        F  0.34813190  0.55271174  0.76075542    -0.22600
F896        F  0.32638137  0.52752607  0.83315223    -0.20000
F897        F  0.28666397  0.50603332  0.76935682    -0.19600
F898        F  0.40516819  0.42176869  0.76630672    -0.19700
F899        F  0.36261890  0.39406231  0.70570338    -0.20000
F900        F  0.34500694  0.37410818  0.78086559    -0.22700
C901        C  0.98967824  0.65371446  0.59049539    -0.05500
C902        C  0.98815073  0.62289181  0.61290219     0.00400
C903        C  0.95330673  0.59305939  0.63206566    -0.08200
C904        C  0.92107493  0.59646656  0.63094023    -0.05500
C905        C  0.92296190  0.62792259  0.60979696     0.00400
C906        C  0.95733921  0.65673903  0.58832788    -0.08100
C907        C  0.96013454  0.69087713  0.56435987     0.62300
H908        H  0.01672625  0.67576203  0.57534263     0.13000
H909        H  0.89413938  0.57467086  0.64659043     0.13000
C910        C  0.94999839  0.55742870  0.65171457     0.62500
F911        F  0.99746666  0.71758967  0.55103999    -0.22600
F912        F  0.94759363  0.70848143  0.59540029    -0.20000
F913        F  0.93770796  0.67905536  0.52353035    -0.19600
F914        F  0.97263834  0.56629962  0.69202579    -0.19700
F915        F  0.96193280  0.54149658  0.61720863    -0.20000
F916        F  0.91255738  0.53042458  0.66422115    -0.22700
C917        C  0.80379583  0.60173397  0.72496406    -0.05500
C918        C  0.82884136  0.63807039  0.70697457     0.00400
C919        C  0.82492650  0.66873827  0.72092416    -0.08200
C920        C  0.79325237  0.66123208  0.74881854    -0.05500
C921        C  0.76556081  0.62407010  0.76281703     0.00400
C922        C  0.77157888  0.59375714  0.75233791    -0.08100
C923        C  0.74391998  0.55289585  0.76793454     0.62300
H924        H  0.80731017  0.57873761  0.71286460     0.13000
H925        H  0.78942975  0.68456950  0.75807947     0.13000
C926        C  0.85229957  0.70934487  0.70502009     0.62500
F927        F  0.75833997  0.52981740  0.75847115    -0.22600
F928        F  0.70961414  0.53770597  0.74338235    -0.20000
F929        F  0.73726997  0.55183932  0.81674332    -0.19600
F930        F  0.83325862  0.72014145  0.67477585    -0.20100
F931        F  0.88427794  0.71387452  0.68144982    -0.20000
F932        F  0.86492063  0.73323221  0.74475517    -0.22700
C933        C  0.78754007  0.62469647  0.98745749    -0.05500
C934        C  0.77489671  0.65015919  0.98361338     0.00400
C935        C  0.77864715  0.65868265  0.50848772    -0.08200
C936        C  0.80960110  0.66368089  0.53546960    -0.05500
C937        C  0.81886597  0.63557571  0.53685761     0.00400
C938        C  0.79892010  0.60254698  0.50776789    -0.08100
C939        C  0.80707024  0.57074761  0.50944040     0.62300
H940        H  0.77135465  0.59732128  0.96938999     0.13000
H941        H  0.82530446  0.68850810  0.55853469     0.13000
C942        C  0.76710371  0.68801977  0.51214765     0.62500
F943        F  0.81019457  0.57320367  0.98997935    -0.22600
F944        F  0.80090404  0.55644661  0.55536140    -0.20000
F945        F  0.87000625  0.62162270  0.00467247    -0.19600
F946        F  0.72870911  0.67043088  0.52459325    -0.19700
F947        F  0.79093294  0.72750108  0.95065801    -0.20000
F948        F  0.78818914  0.71563183  0.54657486    -0.22700
C949        C  0.66046451  0.77794161  0.84025522    -0.05500
C950        C  0.68397119  0.80296950  0.87687785     0.00400
C951        C  0.70245042  0.79106019  0.90862545    -0.08200
C952        C  0.69482979  0.75381178  0.90413845    -0.05500
C953        C  0.66972972  0.72823297  0.86928139     0.00400
C954        C  0.65309170  0.74065457  0.83574538    -0.08100
C955        C  0.62839542  0.71499157  0.79495389     0.62300
H956        H  0.64690157  0.78738274  0.81591841     0.13000
H957        H  0.70805126  0.74399760  0.92865937     0.13000
C958        C  0.73073923  0.81740536  0.94663269     0.62500
F959        F  0.61880084  0.73409041  0.76322387    -0.22600
F960        F  0.59481510  0.68460282  0.81308397    -0.20000
F961        F  0.64807927  0.70149911  0.76968048    -0.19600
F962        F  0.71128589  0.82234351  0.98390519    -0.19700
F963        F  0.75679821  0.85231471  0.92689022    -0.20000
F964        F  0.75136382  0.80278237  0.96557543    -0.22700
C965        C  0.70156947  0.93660087  0.98992869    -0.05500
C966        C  0.67679420  0.89809803  0.97754773     0.00400
C967        C  0.63990071  0.87713291  0.99858747    -0.08200
C968        C  0.62755150  0.89667625  0.02748733    -0.05500
C969        C  0.65357812  0.93821170  0.53037613     0.00400
C970        C  0.68513348  0.95663010  0.49815507    -0.08100
C971        C  0.70676248  0.99922205  0.48917352     0.62300
H972        H  0.72977487  0.95200974  0.97346132     0.13000
H973        H  0.59864314  0.88156662  0.04191137     0.13000
C974        C  0.61254038  0.83516991  0.98737476     0.62500
F975        F  0.73853361  0.01098139  0.46001578    -0.22600
F976        F  0.71952295  0.01908841  0.53209185    -0.20000
F977        F  0.68290505  0.00845038  0.46653470    -0.19600
F978        F  0.62959477  0.81508325  0.99904613    -0.19700
F979        F  0.60352735  0.83016738  0.93911724    -0.20000
F980        F  0.57861176  0.82009202  0.01311909    -0.22700
C981        C  0.69748882  0.95380091  0.82002254    -0.05500
C982        C  0.68783187  0.91640712  0.80837067     0.00400
C983        C  0.66992199  0.90045648  0.76372863    -0.08200
C984        C  0.65777561  0.92039986  0.73609015    -0.05500
C985        C  0.66232790  0.95510660  0.75170924     0.00400
C986        C  0.68405140  0.97302220  0.79349727    -0.08100
C987        C  0.69114309  0.01094106  0.81201244     0.62300
H988        H  0.71344872  0.96697296  0.85259441     0.13000
H989        H  0.64273461  0.90792746  0.70276095     0.13000
C990        C  0.66165431  0.86202486  0.74600056     0.62500
F991        F  0.70966927  0.02108281  0.85588019    -0.22600
F992        F  0.65653808  0.00888281  0.81784079    -0.20000
F993        F  0.71397249  0.03926404  0.77991248    -0.19600
F994        F  0.63430189  0.83373738  0.77504046    -0.19700
F995        F  0.69504888  0.86137530  0.74636545    -0.20000
F996        F  0.64773896  0.85421579  0.69955007    -0.22700
C997        C  0.80011271  0.16250000  0.64529358    -0.05500
C998        C  0.80835789  0.18758359  0.60751906     0.00400
C999        C  0.77841734  0.18285365  0.57752849    -0.08200
C1000       C  0.74093867  0.15198965  0.58594033    -0.05500
C1001       C  0.73279755  0.12668786  0.62362654     0.00400
C1002       C  0.76281896  0.13189012  0.65395255    -0.08100
C1003       C  0.75607836  0.10474799  0.69434563     0.62300
H1004       H  0.82348949  0.16715931  0.66811779     0.13000
H1005       H  0.71761739  0.14715242  0.56289130     0.13000
C1006       C  0.78568662  0.21033548  0.53750387     0.62500
F1007       F  0.79008478  0.11313991  0.71570236    -0.22600
F1008       F  0.73817450  0.06784175  0.67673816    -0.20000
F1009       F  0.73339244  0.10724059  0.72934807    -0.19600
F1010       F  0.80727693  0.20677849  0.50195094    -0.19700
F1011       F  0.80511826  0.24730571  0.55507734    -0.20000
F1012       F  0.75179314  0.20317875  0.51710400    -0.22700
C1013       C  0.94862174  0.30461135  0.70651207    -0.05500
C1014       C  0.91655095  0.29938227  0.68201991     0.00400
C1015       C  0.90476748  0.32570590  0.68755408    -0.08200
C1016       C  0.92647657  0.35746055  0.71716987    -0.05500
C1017       C  0.95909222  0.36332847  0.74126252     0.00400
C1018       C  0.96998302  0.33604594  0.73711084    -0.08100
C1019       C  0.00316372  0.33935689  0.76536025     0.62300
H1020       H  0.95726107  0.28424182  0.70050892     0.13000
H1021       H  0.91822834  0.37825833  0.72153036     0.13000
C1022       C  0.87005534  0.32079243  0.66127761     0.62500
F1023       F  0.00531260  0.30721168  0.76002232    -0.22600
F1024       F  0.99843628  0.34386927  0.81366083    -0.20000
F1025       F  0.03750411  0.37019461  0.74958932    -0.19600
F1026       F  0.83736124  0.28750776  0.67567894    -0.19700
F1027       F  0.87478916  0.31919753  0.61233393    -0.20000
F1028       F  0.86459869  0.35056588  0.67065446    -0.22700
C1029       C  0.98207604  0.33395475  0.48869083    -0.05500
C1030       C  0.95100815  0.34085512  0.96096000     0.00400
C1031       C  0.92015054  0.31124498  0.45067471    -0.08200
C1032       C  0.90404200  0.27945964  0.48070933    -0.05500
C1033       C  0.92566353  0.27640765  0.51678744     0.00400
C1034       C  0.96598538  0.30133923  0.51676880    -0.08100
C1035       C  0.99254810  0.29568156  0.54807324     0.62300
H1036       H  0.00533283  0.34716924  0.97798411     0.13000
H1037       H  0.87349569  0.25924838  0.47990531     0.13000
C1038       C  0.88285100  0.32540556  0.93976521     0.62500
F1039       F  0.02190415  0.29821914  0.52023279    -0.22600
F1040       F  0.97366974  0.26039835  0.56960058    -0.20000
F1041       F  0.00827919  0.32372452  0.58322259    -0.19600
F1042       F  0.88663545  0.32576415  0.89044891    -0.19700
F1043       F  0.89066537  0.36054954  0.95599298    -0.20000
F1044       F  0.85833453  0.28022880  0.41175384    -0.22700
C1045       C  0.38786365  0.94310380  0.83878007    -0.05500
C1046       C  0.39637425  0.96787259  0.87792829     0.00400
C1047       C  0.36722211  0.96067123  0.91149969    -0.08200
C1048       C  0.32968638  0.93013154  0.90289536    -0.05500
C1049       C  0.32044744  0.90671630  0.86211173     0.00400
C1050       C  0.35018260  0.91232486  0.83022123    -0.08100
C1051       C  0.34254602  0.88610043  0.78760508     0.62300
H1052       H  0.41072537  0.94900991  0.81383223     0.13000
H1053       H  0.30688909  0.92481473  0.92764095     0.13000
C1054       C  0.37569187  0.98491874  0.95650072     0.62500
F1055       F  0.37631056  0.89278644  0.76671119    -0.22600
F1056       F  0.32217356  0.89198289  0.75334083    -0.20000
F1057       F  0.32181543  0.84853601  0.80192903    -0.19600
F1058       F  0.38253238  0.02027375  0.94462661    -0.19700
F1059       F  0.40757441  0.98924030  0.97940920    -0.20000
F1060       F  0.34527124  0.96851491  0.98852300    -0.22700
C1061       C  0.17116688  0.78317173  0.94579934    -0.05500
C1062       C  0.20789145  0.79416598  0.92903672     0.00400
C1063       C  0.22440311  0.77278958  0.94115883    -0.08200
C1064       C  0.20393322  0.74174982  0.97162660    -0.05500
C1065       C  0.18255222  0.73640850  0.50550303     0.00400
C1066       C  0.16726446  0.75952669  0.49595394    -0.08100
C1067       C  0.12916534  0.75138813  0.51644252     0.62300
H1068       H  0.15873105  0.79924171  0.93422686     0.13000
H1069       H  0.21640979  0.72536977  0.98157676     0.13000
C1070       C  0.26262291  0.78146007  0.92034195     0.62500
F1071       F  0.12350096  0.78102615  0.50841783    -0.22600
F1072       F  0.12847128  0.74656736  0.56549627    -0.20000
F1073       F  0.09910951  0.71899597  0.49526470    -0.19600
F1074       F  0.29187147  0.81659285  0.93669876    -0.19700
F1075       F  0.26134061  0.78152311  0.87081173    -0.20000
F1076       F  0.27131983  0.75469765  0.93338073    -0.22700
C1077       C  0.22916846  0.81367012  0.73249350    -0.05500
C1078       C  0.20654200  0.82009176  0.76409261     0.00400
C1079       C  0.16619260  0.79714256  0.76021424    -0.08200
C1080       C  0.14998876  0.76279832  0.73438047    -0.05500
C1081       C  0.17315214  0.75253037  0.70931741     0.00400
C1082       C  0.21337349  0.78029537  0.70452409    -0.08100
C1083       C  0.24061360  0.77479494  0.67280153     0.62300
H1084       H  0.25997575  0.83238808  0.73452287     0.13000
H1085       H  0.11906050  0.74360845  0.73480579     0.13000
C1086       C  0.13976765  0.80741930  0.78478323     0.62500
F1087       F  0.27759999  0.80647326  0.67320603    -0.22600
F1088       F  0.22808535  0.76863018  0.62578142    -0.20000
F1089       F  0.24259139  0.74436805  0.68873936    -0.19600
F1090       F  0.15989780  0.84369468  0.80458418    -0.19700
F1091       F  0.11926677  0.78159380  0.82054479    -0.20000
F1092       F  0.11430989  0.80625571  0.75155824    -0.22700
C1093       C  0.46302587  0.32904089  0.61784188    -0.05500
C1094       C  0.49469160  0.33012366  0.63797043     0.00400
C1095       C  0.52698116  0.36539993  0.65242122    -0.08200
C1096       C  0.52574086  0.39856948  0.64794885    -0.05500
C1097       C  0.49331528  0.39753037  0.62966653     0.00400
C1098       C  0.46141418  0.36198078  0.61349010    -0.08100
C1099       C  0.42567349  0.35810676  0.59142207     0.62300
H1100       H  0.43897056  0.30166265  0.60640098     0.13000
H1101       H  0.54988687  0.42554444  0.66025755     0.13000
C1102       C  0.56224039  0.36809877  0.67362758     0.62500
F1103       F  0.40153839  0.32222501  0.57184423    -0.22600
F1104       F  0.43595289  0.38413159  0.55501259    -0.20000
F1105       F  0.40509980  0.36408324  0.62622193    -0.19600
F1106       F  0.57277056  0.34660091  0.64689897    -0.19700
F1107       F  0.55407898  0.35494404  0.72001431    -0.20000
F1108       F  0.59330945  0.40523027  0.67468680    -0.22700
C1109       C  0.45648558  0.19284167  0.74315703    -0.05500
C1110       C  0.49055905  0.22647036  0.73025457     0.00400
C1111       C  0.52617868  0.23356019  0.74684130    -0.08200
C1112       C  0.52669720  0.20556329  0.77362573    -0.05500
C1113       C  0.49307006  0.17024872  0.78269076     0.00400
C1114       C  0.45696471  0.16416780  0.76907386    -0.08100
C1115       C  0.41945200  0.12710032  0.77893862     0.62300
H1116       H  0.42966995  0.18786870  0.72899165     0.13000
H1117       H  0.55394971  0.21057651  0.78611440     0.13000
C1118       C  0.56371273  0.26952294  0.73373694     0.62500
F1119       F  0.38848296  0.12601255  0.75770323    -0.22600
F1120       F  0.41268016  0.12297967  0.82775141    -0.20000
F1121       F  0.42128821  0.09676540  0.76097993    -0.19600
F1122       F  0.56278296  0.30074638  0.74953666    -0.19700
F1123       F  0.56894396  0.27132537  0.68459304    -0.20000
F1124       F  0.59507042  0.27115091  0.75463193    -0.22700
C1125       C  0.45815732  0.17896060  0.55861919    -0.05500
C1126       C  0.48614859  0.21804717  0.55992943     0.00400
C1127       C  0.51857544  0.23281463  0.52955528    -0.08200
C1128       C  0.51196386  0.20151698  0.99751852    -0.05500
C1129       C  0.48569267  0.16210178  0.00058230     0.00400
C1130       C  0.46259206  0.15338267  0.52991253    -0.08100
C1131       C  0.43247539  0.11111885  0.53149865     0.62300
H1132       H  0.43373001  0.16836326  0.58257417     0.13000
H1133       H  0.53655155  0.21159088  0.97395399     0.13000
C1134       C  0.53870323  0.26975788  0.02385243     0.62500
F1135       F  0.40479243  0.10280578  0.56612491    -0.22600
F1136       F  0.44960217  0.09082817  0.54184593    -0.20000
F1137       F  0.41423958  0.09924584  0.48765720    -0.19600
F1138       F  0.56567783  0.28608419  0.57474641    -0.19700
F1139       F  0.53331235  0.29579018  0.51747388    -0.20000
F1140       F  0.56712631  0.27724049  0.99068250    -0.22700
loop_ 
_geom_bond_atom_site_label_1 
_geom_bond_atom_site_label_2 
_geom_bond_distance 
_geom_bond_site_symmetry_2 
_ccdc_geom_bond_type 
C1            N2   1.369       .  A
C1            N6   1.367       .  A
C1          C524   1.491       .  S
N2            C3   1.362       .  A
C3            N4   1.346       .  A
C3          C540   1.469       .  S
N4            C5   1.345       .  A
C5            N6   1.360       .  A
C5          C556   1.474       .  S
C7            N8   1.362       .  A
C7           N12   1.358       .  A
C7          C479   1.472       .  S
N8            C9   1.361       .  A
C9           N10   1.350       .  A
C9          C508   1.473       .  S
N10          C11   1.347       .  A
C11          N12   1.351       .  A
C11         C492   1.459       .  S
C13          N14   1.361       .  A
C13          N18   1.363       .  A
C13         C428   1.489       .  S
N14          C15   1.358       .  A
C15          N16   1.350       .  A
C15         C463   1.471       .  S
N16          C17   1.350       .  A
C17          N18   1.358       .  A
C17         C444   1.482       .  S
C19          N20   1.362       .  A
C19          N24   1.366       .  A
C19         C380   1.481       .  S
N20          C21   1.356       .  A
C21          N22   1.341       .  A
C21         C412   1.457       .  S
N22          C23   1.345       .  A
C23          N24   1.359       .  A
C23         C396   1.469       .  S
C25          N26   1.361       .  A
C25          N30   1.360       .  A
C25         C335   1.470       .  S
N26          C27   1.356       .  A
C27          N28   1.348       .  A
C27         C367   1.467       .  S
N28          C29   1.347       .  A
C29          N30   1.355       .  A
C29         C348   1.459       .  S
C31          N32   1.363       .  A
C31          N36   1.358       .  A
C31         C284   1.461       .  S
N32          C33   1.359       .  A
C33          N34   1.347       .  A
C33         C303   1.464       .  S
N34          C35   1.344       .  A
C35          N36   1.351       .  A
C35         C319   1.455       .  S
Zn37         O41   1.961       .  S
Zn37         O42   2.022       .  S
Zn37         O46   1.983       .  S
Zn37         O53   2.017       .  S
Zn38         O41   1.956       .  S
Zn38         O43   2.110       .  S
Zn38         O45   2.118       .  S
Zn38         O49   2.095   1_455  S
Zn39         O41   1.956       .  S
Zn39         O44   2.015       .  S
Zn39         O47   2.034       .  S
Zn39         O50   2.038       .  S
Zn40         O41   1.923   1_655  S
Zn40         O48   1.973       .  S
Zn40         O51   1.961       .  S
Zn40         O52   1.954       .  S
O42          C54   1.273       .  A
O43          C55   1.290       .  A
O44          C56   1.274       .  A
O45          C54   1.291       .  A
O46          C56   1.269       .  A
O47          C55   1.277       .  A
O48          C57   1.268       .  A
O49          C58   1.281       .  A
O50          C57   1.271   1_455  A
O51          C58   1.266       .  A
O52          C59   1.261       .  A
O53          C59   1.273   1_455  A
C54         C647   1.495       .  S
C55          C81   1.494       .  S
C56         C287   1.462       .  S
C57         C447   1.499       .  S
C58         C271   1.479       .  S
C59         C460   1.485       .  S
Zn60         O64   1.947       .  S
Zn60         O65   2.003       .  S
Zn60         O69   2.008       .  S
Zn60         O76   1.979       .  S
Zn61         O64   1.961       .  S
Zn61         O66   2.081       .  S
Zn61         O68   2.117       .  S
Zn61         O72   2.102       .  S
Zn62         O64   1.920       .  S
Zn62         O67   1.972       .  S
Zn62         O70   1.951       .  S
Zn62         O73   1.955       .  S
Zn63         O64   1.965       .  S
Zn63         O71   2.039       .  S
Zn63         O74   2.036       .  S
Zn63         O75   2.009       .  S
O65          C77   1.272       .  A
O66          C78   1.280       .  A
O67          C79   1.267       .  A
O68          C77   1.290       .  A
O69          C79   1.267       .  A
O70          C78   1.266       .  A
O71          C80   1.276       .  A
O72          C81   1.288       .  A
O73          C80   1.261       .  A
O74          C81   1.276       .  A
O75          C82   1.272       .  A
O76          C82   1.271       .  A
C77         C624   1.490   1_554  S
C78         C252   1.471       .  S
C79         C495   1.481   1_554  S
C80         C511   1.488       .  S
C82         C332   1.464   1_455  S
Zn83         O87   1.962       .  S
Zn83         O88   1.993       .  S
Zn83         O92   1.989       .  S
Zn83         O99   1.965       .  S
Zn84         O87   1.960       .  S
Zn84         O89   2.034       .  S
Zn84         O91   2.013       .  S
Zn84         O95   2.053       .  S
Zn85         O87   1.951       .  S
Zn85         O90   2.005       .  S
Zn85         O93   2.026       .  S
Zn85         O96   2.064       .  S
Zn86         O87   1.969       .  S
Zn86         O94   2.115       .  S
Zn86         O97   2.101       .  S
Zn86         O98   2.038       .  S
O88         C100   1.266       .  A
O89         C101   1.277       .  A
O90         C102   1.270       .  A
O91         C100   1.272       .  A
O92         C102   1.267       .  A
O93         C101   1.278       .  A
O94         C103   1.288       .  A
O95         C104   1.278       .  A
O96         C103   1.279       .  A
O97         C104   1.286       .  A
O98         C105   1.276       .  A
O99         C105   1.268       .  A
C100        C543   1.486       .  S
C101        C236   1.492       .  S
C102        C559   1.474       .  S
C103        C694   1.500       .  S
C104        C123   1.492       .  S
C105        C476   1.469   1_545  S
Zn106       O110   1.947       .  S
Zn106       O111   2.026       .  S
Zn106       O115   2.019       .  S
Zn106       O122   2.030   1_545  S
Zn107       O110   1.960       .  S
Zn107       O112   2.131       .  S
Zn107       O114   2.136       .  S
Zn107       O118   2.128   1_545  S
Zn108       O110   1.946       .  S
Zn108       O113   2.009       .  S
Zn108       O116   2.032       .  S
Zn108       O119   2.025   1_545  S
Zn109       O110   1.911   1_565  S
Zn109       O117   1.956       .  S
Zn109       O120   1.924       .  S
Zn109       O121   1.961       .  S
O111        C123   1.275       .  A
O112        C124   1.291       .  A
O113        C125   1.275       .  A
O114        C123   1.292       .  A
O115        C125   1.273       .  A
O116        C124   1.276       .  A
O117        C126   1.264       .  A
O118        C127   1.286       .  A
O119        C126   1.272       .  A
O120        C127   1.262       .  A
O121        C128   1.264       .  A
O122        C128   1.272       .  A
C124        C673   1.494   1_554  S
C125        C431   1.489       .  S
C126        C399   1.473       .  S
C127        C220   1.479       .  S
C128        C415   1.463       .  S
C129        N130   1.363       .  A
C129        N134   1.359       .  A
C129        C204   1.483       .  S
N130        C131   1.361       .  A
C131        N132   1.360       .  A
C131        C268   1.483       .  S
N132        C133   1.357       .  A
C133        N134   1.359       .  A
C133        C239   1.481       .  S
C135        N136   1.359       .  A
C135        N140   1.365       .  A
C135        C191   1.485       .  S
N136        C137   1.355       .  A
C137        N138   1.360       .  A
C137        C255   1.475       .  S
N138        C139   1.359       .  A
C139        N140   1.367       .  A
C139        C223   1.489       .  S
Zn141       O145   1.956       .  S
Zn141       O146   1.994       .  S
Zn141       O150   1.959       .  S
Zn141       O157   1.965       .  S
Zn142       O145   1.951       .  S
Zn142       O147   2.094       .  S
Zn142       O149   2.063       .  S
Zn142       O153   2.072       .  S
Zn143       O145   1.956       .  S
Zn143       O148   2.005       .  S
Zn143       O151   2.042       .  S
Zn143       O154   2.029       .  S
Zn144       O145   1.963       .  S
Zn144       O152   2.041       .  S
Zn144       O155   2.026       .  S
Zn144       O156   2.005       .  S
O146        C158   1.267       .  A
O147        C159   1.287       .  A
O148        C160   1.270       .  A
O149        C158   1.278       .  A
O150        C160   1.267       .  A
O151        C159   1.277       .  A
O152        C161   1.274       .  A
O153        C162   1.285       .  A
O154        C161   1.276       .  A
O155        C162   1.276       .  A
O156        C163   1.271       .  A
O157        C163   1.263       .  A
C158        C527   1.499       .  S
C159        C753   1.494   1_554  S
C160        C300   1.473       .  S
C161        C188   1.506       .  S
C162        C186   1.483       .  S
C163        C316   1.476       .  S
Zn164       O168   1.953       .  S
Zn164       O169   2.039       .  S
Zn164       O173   2.094       .  S
Zn164       O180   2.086       .  S
Zn165       O168   1.952       .  S
Zn165       O170   1.965       .  S
Zn165       O172   1.975       .  S
Zn165       O176   1.975       .  S
Zn166       O168   1.943       .  S
Zn166       O171   2.038       .  S
Zn166       O174   1.977       .  S
Zn166       O177   2.030       .  S
Zn167       O168   1.948       .  S
Zn167       O175   2.018       .  S
Zn167       O178   2.006       .  S
Zn167       O179   2.013       .  S
O169        C181   1.275       .  A
O170        C182   1.265       .  A
O171        C183   1.277       .  A
O172        C181   1.266       .  A
O173        C183   1.286       .  A
O174        C182   1.269       .  A
O175        C184   1.275       .  A
O176        C185   1.266       .  A
O177        C184   1.274       .  A
O178        C185   1.269       .  A
O179        C186   1.276       .  A
O180        C186   1.287       .  A
C181        C383   1.488       .  S
C182        C364   1.463       .  S
C183        C729   1.495       .  S
C184        C207   1.499       .  S
C185        C351   1.474       .  S
C187        C188   1.411       .  A
C187        C192   1.408       .  A
C187        H194   1.082       .  S
C188        C189   1.427       .  A
C189        C190   1.416       .  A
C189        C196   1.518       .  S
C190        C191   1.403       .  A
C190        H195   1.083       .  S
C191        C192   1.413       .  A
C192        C193   1.519       .  S
C193        F197   1.385   1_554  S
C193        F198   1.383       .  S
C193        F199   1.382       .  S
C196        F200   1.384       .  S
C196        F201   1.383       .  S
C196        F202   1.385       .  S
C203        C204   1.403       .  A
C203        C208   1.412       .  A
C203        H210   1.083       .  S
C204        C205   1.412       .  A
C205        C206   1.408       .  A
C205        C212   1.518       .  S
C206        C207   1.412       .  A
C206        H211   1.082       .  S
C207        C208   1.423       .  A
C208        C209   1.518       .  S
C209        F213   1.385       .  S
C209        F214   1.384       .  S
C209        F215   1.382       .  S
C212        F216   1.384       .  S
C212        F217   1.382       .  S
C212        F218   1.385       .  S
C219        C220   1.403       .  A
C219        C224   1.412       .  A
C219        H226   1.083       .  S
C220        C221   1.418       .  A
C221        C222   1.412       .  A
C221        C228   1.518       .  S
C222        C223   1.403       .  A
C222        H227   1.083       .  S
C223        C224   1.417       .  A
C224        C225   1.514       .  S
C225        F229   1.384       .  S
C225        F230   1.383       .  S
C225        F231   1.380       .  S
C228        F232   1.382       .  S
C228        F233   1.383       .  S
C228        F234   1.385   1_554  S
C235        C236   1.408       .  A
C235        C240   1.406       .  A
C235        H242   1.083       .  S
C236        C237   1.419       .  A
C237        C238   1.413       .  A
C237        C244   1.515       .  S
C238        C239   1.405       .  A
C238        H243   1.084       .  S
C239        C240   1.414       .  A
C240        C241   1.519       .  S
C241        F245   1.384       .  S
C241        F246   1.382       .  S
C241        F247   1.383       .  S
C244        F248   1.382       .  S
C244        F249   1.384       .  S
C244        F250   1.385       .  S
C251        C252   1.404       .  A
C251        C256   1.409       .  A
C251        H258   1.083       .  S
C252        C253   1.414       .  A
C253        C254   1.407       .  A
C253        C260   1.516       .  S
C254        C255   1.401       .  A
C254        H259   1.083       .  S
C255        C256   1.413       .  A
C256        C257   1.516       .  S
C257        F261   1.384       .  S
C257        F262   1.379       .  S
C257        F263   1.383       .  S
C260        F264   1.383       .  S
C260        F265   1.383       .  S
C260        F266   1.384   1_554  S
C267        C268   1.404       .  A
C267        C272   1.412       .  A
C267        H274   1.083       .  S
C268        C269   1.417       .  A
C269        C270   1.409       .  A
C269        C276   1.519       .  S
C270        C271   1.403       .  A
C270        H275   1.084       .  S
C271        C272   1.416       .  A
C272        C273   1.516       .  S
C273        F277   1.384       .  S
C273        F278   1.383       .  S
C273        F279   1.383       .  S
C276        F280   1.382       .  S
C276        F281   1.384       .  S
C276        F282   1.384       .  S
C283        C284   1.401       .  A
C283        C288   1.404       .  A
C283        H290   1.084       .  S
C284        C285   1.412       .  A
C285        C286   1.401       .  A
C285        C292   1.519       .  S
C286        C287   1.401       .  A
C286        H291   1.084       .  S
C287        C288   1.413       .  A
C288        C289   1.517       .  S
C289        F293   1.385       .  S
C289        F294   1.383       .  S
C289        F295   1.383       .  S
C292        F296   1.384       .  S
C292        F297   1.382       .  S
C292        F298   1.385       .  S
C299        C300   1.405       .  A
C299        C874   1.395   1_554  A
C299        H306   1.085       .  S
C300        C871   1.423       .  A
C301        C302   1.405       .  A
C301        C870   1.419       .  A
C301        C308   1.521       .  S
C302        C303   1.401       .  A
C302        H307   1.083       .  S
C303        C304   1.418       .  A
C304        C869   1.397       .  A
C304        C875   1.518       .  S
C305        C874   1.515       .  S
C305        F309   1.384   1_556  S
C305        F311   1.383       .  S
C305        F880   1.383       .  S
C308        F312   1.383       .  S
C308        F313   1.384       .  S
C308        F314   1.385       .  S
F310        C875   1.384       .  S
C315        C316   1.406       .  A
C315        C320   1.400       .  A
C315        H322   1.083       .  S
C316        C317   1.422       .  A
C317        C318   1.401       .  A
C317        C324   1.521       .  S
C318        C319   1.398       .  A
C318        H323   1.084       .  S
C319        C320   1.411       .  A
C320        C321   1.520       .  S
C321        F325   1.385       .  S
C321        F326   1.384       .  S
C321        F327   1.383       .  S
C324        F328   1.383       .  S
C324        F329   1.383       .  S
C324        F330   1.385       .  S
C331        C332   1.401       .  A
C331        C336   1.400       .  A
C331        H338   1.084   1_655  S
C332        C333   1.411       .  A
C333        C334   1.406       .  A
C333        C340   1.518       .  S
C334        C335   1.406       .  A
C334        H339   1.083       .  S
C335        C336   1.415       .  A
C336        C337   1.520       .  S
C337        F341   1.385   1_655  S
C337        F342   1.384       .  S
C337        F343   1.382       .  S
C340        F344   1.382       .  S
C340        F345   1.383       .  S
C340        F346   1.384       .  S
C347        C348   1.399       .  A
C347        C352   1.403       .  A
C347        H354   1.084       .  S
C348        C349   1.410       .  A
C349        C350   1.401       .  A
C349        C356   1.517       .  S
C350        C351   1.405       .  A
C350        H355   1.083       .  S
C351        C352   1.422       .  A
C352        C353   1.521       .  S
C353        F357   1.385       .  S
C353        F358   1.382       .  S
C353        F359   1.384       .  S
C356        F360   1.382       .  S
C356        F361   1.384       .  S
C356        F362   1.384       .  S
C363        C364   1.404       .  A
C363        C938   1.398       .  A
C363        H370   1.084       .  S
C364        C935   1.414       .  A
C365        C366   1.405       .  A
C365        C934   1.417   1_554  A
C365        C372   1.518   1_554  S
C366        C367   1.403       .  A
C366        H371   1.084       .  S
C367        C368   1.414       .  A
C368        C933   1.403   1_554  A
C368        C369   1.520       .  S
C369        F374   1.383       .  S
C369        F943   1.385   1_554  S
C369        F945   1.383       .  S
C372        F376   1.383   1_556  S
C372        F378   1.385   1_556  S
C372        F947   1.383       .  S
F373        C939   1.385       .  S
F375        C939   1.382       .  S
F377        C942   1.382       .  S
C379        C380   1.401       .  A
C379        C384   1.406       .  A
C379        H386   1.083       .  S
C380        C381   1.419       .  A
C381        C382   1.407       .  A
C381        C388   1.519       .  S
C382        C383   1.405       .  A
C382        H387   1.083       .  S
C383        C384   1.425       .  A
C384        C385   1.523       .  S
C385        F389   1.385       .  S
C385        F390   1.383       .  S
C385        F391   1.384       .  S
C388        F392   1.382       .  S
C388        F393   1.382       .  S
C388        F394   1.385       .  S
C395        C396   1.405       .  A
C395        C970   1.405       .  A
C395        H402   1.084       .  S
C396        C397   1.412       .  A
C397        C398   1.402       .  A
C397        C404   1.520       .  S
C398        C969   1.411       .  A
C398        H403   1.082       .  S
C399        C400   1.415       .  A
C399        C968   1.405       .  A
C400        C965   1.404   1_554  A
C400        C401   1.519       .  S
C401        F405   1.385   1_565  S
C401        F406   1.384   1_565  S
C401        F407   1.382   1_565  S
C404        F408   1.383       .  S
C404        F409   1.384       .  S
C404        F410   1.385       .  S
C411        C412   1.397       .  A
C411        C416   1.404       .  A
C411        H418   1.083       .  S
C412        C413   1.417       .  A
C413        C414   1.399       .  A
C413        C420   1.521       .  S
C414        C415   1.398       .  A
C414        H419   1.084       .  S
C415        C416   1.417       .  A
C416        C417   1.517       .  S
C417        F421   1.384       .  S
C417        F422   1.380       .  S
C417        F423   1.382       .  S
C420        F424   1.382       .  S
C420        F425   1.382       .  S
C420        F426   1.384       .  S
C427        C428   1.404       .  A
C427        C432   1.408       .  A
C427        H434   1.083       .  S
C428        C429   1.423       .  A
C429        C430   1.406       .  A
C429        C436   1.520       .  S
C430        C431   1.404       .  A
C430        H435   1.083       .  S
C431        C432   1.422       .  A
C432        C433   1.520       .  S
C433        F437   1.385       .  S
C433        F438   1.382       .  S
C433        F439   1.383       .  S
C436        F440   1.383       .  S
C436        F441   1.383       .  S
C436        F442   1.385       .  S
C443        C444   1.406       .  A
C443        C448   1.409       .  A
C443        H450   1.083       .  S
C444        C445   1.416       .  A
C445        C446   1.404       .  A
C445        C452   1.522       .  S
C446        C447   1.412       .  A
C446        H451   1.081       .  S
C447        C448   1.424       .  A
C448        C449   1.521   1_655  S
C449        F453   1.385       .  S
C449        F454   1.384       .  S
C449        F455   1.383       .  S
C452        F456   1.383       .  S
C452        F457   1.383       .  S
C452        F458   1.385       .  S
C459        C464   1.401   1_556  A
C459       C1030   1.405       .  A
C459       H1036   1.084   1_655  S
C460       C1029   1.405       .  A
C460       C1031   1.430       .  A
C461        C462   1.405       .  A
C461       C1030   1.426       .  A
C461       C1038   1.523       .  S
C462        C463   1.399   1_556  A
C462        H467   1.078       .  S
C463        C464   1.412       .  A
C464        C465   1.516       .  S
C465        F469   1.384   1_654  S
C465        F470   1.384       .  S
C465        F471   1.383   1_655  S
H466       C1029   1.083   1_455  S
C468       C1031   1.523       .  S
C468        F472   1.384       .  S
C468        F473   1.384       .  S
C468       F1044   1.385       .  S
F474       C1038   1.385       .  S
C475        C476   1.402       .  A
C475        C480   1.407       .  A
C475        H482   1.083       .  S
C476        C477   1.416       .  A
C477        C478   1.399       .  A
C477        C484   1.520       .  S
C478        C479   1.401       .  A
C478        H483   1.084       .  S
C479        C480   1.418       .  A
C480        C481   1.518       .  S
C481        F485   1.385       .  S
C481        F486   1.382       .  S
C481        F487   1.384       .  S
C484        F488   1.382   1_565  S
C484        F489   1.384   1_565  S
C484        F490   1.385       .  S
C491        C492   1.398       .  A
C491       C1066   1.402       .  A
C491        H498   1.084       .  S
C492        C493   1.412       .  A
C493        C494   1.400       .  A
C493        C500   1.520       .  S
C494       C1065   1.407       .  A
C494        H499   1.083       .  S
C495        C496   1.423       .  A
C495       C1064   1.405       .  A
C496       C1061   1.407       .  A
C496        C497   1.521       .  S
C497        F501   1.385       .  S
C497        F502   1.383   1_556  S
C497        F503   1.383       .  S
C500        F504   1.383       .  S
C500        F505   1.383       .  S
C500        F506   1.385       .  S
C507        C508   1.398       .  A
C507        C512   1.405       .  A
C507        H514   1.080       .  S
C508        C509   1.415       .  A
C509        C510   1.400       .  A
C509        C516   1.517       .  S
C510        C511   1.405       .  A
C510        H515   1.084       .  S
C511        C512   1.431       .  A
C512        C513   1.524       .  S
C513        F517   1.385       .  S
C513        F518   1.384       .  S
C513        F519   1.384       .  S
C516        F520   1.384       .  S
C516        F521   1.383       .  S
C516        F522   1.384       .  S
C523        C524   1.403       .  A
C523        C528   1.412       .  A
C523        H530   1.083       .  S
C524        C525   1.417       .  A
C525        C526   1.409       .  A
C525        C532   1.514       .  S
C526        C527   1.406       .  A
C526        H531   1.083       .  S
C527        C528   1.428       .  A
C528        C529   1.521       .  S
C529        F533   1.385       .  S
C529        F534   1.383       .  S
C529        F535   1.383       .  S
C532        F536   1.383       .  S
C532        F537   1.380       .  S
C532        F538   1.385       .  S
C539        C540   1.403       .  A
C539        C544   1.409       .  A
C539        H546   1.083       .  S
C540        C541   1.412       .  A
C541        C542   1.403       .  A
C541        C548   1.516       .  S
C542        C543   1.406       .  A
C542        H547   1.083       .  S
C543        C544   1.422       .  A
C544        C545   1.520       .  S
C545        F549   1.385       .  S
C545        F550   1.383       .  S
C545        F551   1.383       .  S
C548        F552   1.379       .  S
C548        F553   1.383       .  S
C548        F554   1.385       .  S
C555        C556   1.407       .  A
C555        C560   1.407       .  A
C555        H562   1.083       .  S
C556        C557   1.414       .  A
C557       C1128   1.405   1_554  A
C557       C1134   1.518       .  S
C558        C559   1.405       .  A
C558       C1127   1.404       .  A
C558        H563   1.084       .  S
C559       C1130   1.415       .  A
C560       C1129   1.414       .  A
C560        C561   1.518       .  S
C561        F565   1.385       .  S
C561        F566   1.384       .  S
C561        F567   1.382   1_554  S
C564       C1127   1.518       .  S
C564        F570   1.383       .  S
C564       F1138   1.383       .  S
C564       F1139   1.383       .  S
F568       C1134   1.383       .  S
F569       C1134   1.383       .  S
C571        N572   1.366       .  A
C571        N576   1.364       .  A
C571       C1094   1.476       .  S
N572        C573   1.360       .  A
C573        N574   1.345       .  A
C573       C1110   1.461       .  S
N574        C575   1.344       .  A
C575        N576   1.357       .  A
C575       C1126   1.468       .  S
C577        N578   1.362       .  A
C577        N582   1.358       .  A
C577       C1049   1.481       .  S
N578        C579   1.363       .  A
C579        N580   1.352       .  A
C579       C1078   1.472       .  S
N580        C581   1.347       .  A
C581        N582   1.354       .  A
C581       C1062   1.466       .  S
C583        N584   1.362       .  A
C583        N588   1.357       .  A
C583        C998   1.469       .  S
N584        C585   1.362       .  A
C585        N586   1.350       .  A
C585       C1033   1.471       .  S
N586        C587   1.344       .  A
C587        N588   1.350       .  A
C587       C1014   1.453       .  S
C589        N590   1.370       .  A
C589        N594   1.362       .  A
C589        C950   1.489       .  S
N590        C591   1.365       .  A
C591        N592   1.348       .  A
C591        C982   1.495       .  S
N592        C593   1.343       .  A
C593        N594   1.353       .  A
C593        C966   1.466       .  S
C595        N596   1.358       .  A
C595        N600   1.359       .  A
C595        C905   1.457       .  S
N596        C597   1.352       .  A
C597        N598   1.346       .  A
C597        C937   1.458       .  S
N598        C599   1.345       .  A
C599        N600   1.353       .  A
C599        C918   1.451       .  S
C601        N602   1.361       .  A
C601        N606   1.359       .  A
C601        C854   1.479       .  S
N602        C603   1.353       .  A
C603        N604   1.347       .  A
C603        C873   1.453       .  S
N604        C605   1.346       .  A
C605        N606   1.354       .  A
C605        C889   1.460       .  S
Zn607       O611   1.959       .  S
Zn607       O612   2.018       .  S
Zn607       O616   1.992       .  S
Zn607       O623   2.031       .  S
Zn608       O611   1.956       .  S
Zn608       O613   2.131       .  S
Zn608       O615   2.111       .  S
Zn608       O619   2.099   1_455  S
Zn609       O611   1.942       .  S
Zn609       O614   1.987       .  S
Zn609       O617   2.010       .  S
Zn609       O620   2.003       .  S
Zn610       O611   1.912   1_655  S
Zn610       O618   1.954       .  S
Zn610       O621   1.943       .  S
Zn610       O622   1.971       .  S
O612        C624   1.275       .  A
O613        C625   1.291       .  A
O614        C626   1.272       .  A
O615        C624   1.291       .  A
O616        C626   1.269       .  A
O617        C625   1.272       .  A
O618        C627   1.266       .  A
O619        C628   1.281       .  A
O620        C627   1.269   1_455  A
O621        C628   1.265       .  A
O622        C629   1.263       .  A
O623        C629   1.274   1_455  A
C625        C651   1.496       .  S
C626        C857   1.475       .  S
C627       C1017   1.467       .  S
C628        C841   1.477       .  S
C629       C1030   1.484       .  S
Zn630       O634   1.933       .  S
Zn630       O635   2.006       .  S
Zn630       O639   2.003       .  S
Zn630       O646   1.973       .  S
Zn631       O634   1.942       .  S
Zn631       O636   2.099       .  S
Zn631       O638   2.132       .  S
Zn631       O642   2.123       .  S
Zn632       O634   1.903       .  S
Zn632       O637   1.964       .  S
Zn632       O640   1.934       .  S
Zn632       O643   1.936       .  S
Zn633       O634   1.960       .  S
Zn633       O641   2.055       .  S
Zn633       O644   2.032       .  S
Zn633       O645   1.998       .  S
O635        C647   1.272       .  A
O636        C648   1.282       .  A
O637        C649   1.266       .  A
O638        C647   1.292       .  A
O639        C649   1.268       .  A
O640        C648   1.264       .  A
O641        C650   1.277       .  A
O642        C651   1.293       .  A
O643        C650   1.258       .  A
O644        C651   1.277       .  A
O645        C652   1.271       .  A
O646        C652   1.269       .  A
C648        C822   1.472       .  S
C649       C1065   1.478       .  S
C650       C1081   1.490       .  S
C652        C902   1.457   1_455  S
Zn653       O657   1.972       .  S
Zn653       O658   1.997       .  S
Zn653       O662   2.001       .  S
Zn653       O669   1.976       .  S
Zn654       O657   1.952       .  S
Zn654       O659   2.025       .  S
Zn654       O661   1.982       .  S
Zn654       O665   2.041       .  S
Zn655       O657   1.958       .  S
Zn655       O660   2.010       .  S
Zn655       O663   2.038       .  S
Zn655       O666   2.053       .  S
Zn656       O657   1.972       .  S
Zn656       O664   2.110       .  S
Zn656       O667   2.119       .  S
Zn656       O668   2.059       .  S
O658        C670   1.266       .  A
O659        C671   1.273       .  A
O660        C672   1.271       .  A
O661        C670   1.270       .  A
O662        C672   1.268       .  A
O663        C671   1.278       .  A
O664        C673   1.288       .  A
O665        C674   1.275       .  A
O666        C673   1.279       .  A
O667        C674   1.287       .  A
O668        C675   1.279       .  A
O669        C675   1.269       .  A
C670       C1113   1.479       .  S
C671        C806   1.504       .  S
C672       C1129   1.478   1_556  S
C674        C693   1.495       .  S
C675       C1046   1.475   1_545  S
Zn676       O680   1.951       .  S
Zn676       O681   2.032       .  S
Zn676       O685   2.000       .  S
Zn676       O692   2.036       .  S
Zn677       O680   1.971       .  S
Zn677       O682   2.150       .  S
Zn677       O684   2.138       .  S
Zn677       O688   2.116   1_545  S
Zn678       O680   1.961       .  S
Zn678       O683   2.001       .  S
Zn678       O686   2.027       .  S
Zn678       O689   2.020   1_545  S
Zn679       O680   1.933   1_565  S
Zn679       O687   1.965       .  S
Zn679       O690   1.941       .  S
Zn679       O691   1.974       .  S
O681        C693   1.276       .  A
O682        C694   1.292       .  A
O683        C695   1.272       .  A
O684        C693   1.292       .  A
O685        C695   1.272       .  A
O686        C694   1.274       .  A
O687        C696   1.266       .  A
O688        C697   1.285       .  A
O689        C696   1.271       .  A
O690        C697   1.265       .  A
O691        C698   1.266       .  A
O692        C698   1.271   1_545  A
C695       C1001   1.472       .  S
C696        C969   1.488       .  S
C697        C790   1.479       .  S
C698        C985   1.487       .  S
C699        N700   1.360       .  A
C699        N704   1.361       .  A
C699        C774   1.479       .  S
N700        C701   1.358       .  A
C701        N702   1.362       .  A
C701        C838   1.483       .  S
N702        C703   1.360       .  A
C703        N704   1.362       .  A
C703        C809   1.486       .  S
C705        N706   1.358       .  A
C705        N710   1.361       .  A
C705        C761   1.480       .  S
N706        C707   1.355       .  A
C707        N708   1.364       .  A
C707        C825   1.481       .  S
N708        C709   1.363       .  A
C709        N710   1.363       .  A
C709        C793   1.488       .  S
Zn711       O715   1.957       .  S
Zn711       O716   1.979       .  S
Zn711       O720   1.976       .  S
Zn711       O727   1.972       .  S
Zn712       O715   1.958       .  S
Zn712       O717   2.098       .  S
Zn712       O719   2.050       .  S
Zn712       O723   2.101       .  S
Zn713       O715   1.961       .  S
Zn713       O718   1.999       .  S
Zn713       O721   2.042       .  S
Zn713       O724   2.050       .  S
Zn714       O715   1.949       .  S
Zn714       O722   2.014       .  S
Zn714       O725   2.023       .  S
Zn714       O726   2.005       .  S
O716        C728   1.266       .  A
O717        C729   1.288       .  A
O718        C730   1.269       .  A
O719        C728   1.276       .  A
O720        C730   1.267       .  A
O721        C729   1.278       .  A
O722        C731   1.271       .  A
O723        C732   1.289       .  A
O724        C731   1.278       .  A
O725        C732   1.275       .  A
O726        C733   1.271       .  A
O727        C733   1.264       .  A
C728       C1097   1.493       .  S
C730        C870   1.466       .  S
C731        C758   1.507       .  S
C732        C756   1.491       .  S
C733        C886   1.471       .  S
Zn734       O738   1.962       .  S
Zn734       O739   2.067       .  S
Zn734       O743   2.105       .  S
Zn734       O750   2.101       .  S
Zn735       O738   1.965       .  S
Zn735       O740   1.985       .  S
Zn735       O742   1.990       .  S
Zn735       O746   1.986       .  S
Zn736       O738   1.957       .  S
Zn736       O741   2.039       .  S
Zn736       O744   2.020       .  S
Zn736       O747   2.027       .  S
Zn737       O738   1.954       .  S
Zn737       O745   2.026       .  S
Zn737       O748   1.969       .  S
Zn737       O749   2.019       .  S
O739        C751   1.279       .  A
O740        C752   1.266       .  A
O741        C753   1.278       .  A
O742        C751   1.271       .  A
O743        C753   1.289       .  A
O744        C752   1.273       .  A
O745        C754   1.275       .  A
O746        C755   1.269       .  A
O747        C754   1.272       .  A
O748        C755   1.264       .  A
O749        C756   1.273       .  A
O750        C756   1.287       .  A
C751        C953   1.481       .  S
C752        C934   1.475       .  S
C754        C777   1.506       .  S
C755        C921   1.475       .  S
C757        C758   1.413       .  A
C757        C762   1.414       .  A
C757        H764   1.082       .  S
C758        C759   1.433       .  A
C759        C760   1.408       .  A
C759        C766   1.522       .  S
C760        C761   1.396       .  A
C760        H765   1.083       .  S
C761        C762   1.411       .  A
C762        C763   1.516       .  S
C763        F767   1.384       .  S
C763        F768   1.383       .  S
C763        F769   1.383       .  S
C766        F770   1.383       .  S
C766        F771   1.381       .  S
C766        F772   1.385       .  S
C773        C774   1.398       .  A
C773        C778   1.411       .  A
C773        H780   1.083       .  S
C774        C775   1.410       .  A
C775        C776   1.409       .  A
C775        C782   1.517       .  S
C776        C777   1.414       .  A
C776        H781   1.082       .  S
C777        C778   1.430       .  A
C778        C779   1.521       .  S
C779        F783   1.385   1_556  S
C779        F784   1.383       .  S
C779        F785   1.383       .  S
C782        F786   1.383       .  S
C782        F787   1.383       .  S
C782        F788   1.385       .  S
C789        C790   1.403       .  A
C789        C794   1.409       .  A
C789        H796   1.083       .  S
C790        C791   1.417       .  A
C791        C792   1.415       .  A
C791        C798   1.517       .  S
C792        C793   1.405       .  A
C792        H797   1.083       .  S
C793        C794   1.417       .  A
C794        C795   1.516       .  S
C795        F799   1.384       .  S
C795        F800   1.383       .  S
C795        F801   1.380       .  S
C798        F802   1.384       .  S
C798        F803   1.383       .  S
C798        F804   1.384       .  S
C805        C806   1.411       .  A
C805        C810   1.410       .  A
C805        H812   1.082       .  S
C806        C807   1.426       .  A
C807        C808   1.414       .  A
C807        C814   1.519       .  S
C808        C809   1.402       .  A
C808        H813   1.083       .  S
C809        C810   1.414       .  A
C810        C811   1.519       .  S
C811        F815   1.385   1_556  S
C811        F816   1.382       .  S
C811        F817   1.382       .  S
C814        F818   1.383       .  S
C814        F819   1.384       .  S
C814        F820   1.385       .  S
C821        C822   1.403       .  A
C821        C826   1.410       .  A
C821        H828   1.083       .  S
C822        C823   1.416       .  A
C823        C824   1.409       .  A
C823        C830   1.517       .  S
C824        C825   1.402       .  A
C824        H829   1.083       .  S
C825        C826   1.416       .  A
C826        C827   1.515       .  S
C827        F831   1.384       .  S
C827        F832   1.379       .  S
C827        F833   1.383       .  S
C830        F834   1.383       .  S
C830        F835   1.383       .  S
C830        F836   1.384       .  S
C837        C838   1.406       .  A
C837        C842   1.414       .  A
C837        H844   1.083       .  S
C838        C839   1.416       .  A
C839        C840   1.405       .  A
C839        C846   1.518       .  S
C840        C841   1.403       .  A
C840        H845   1.084       .  S
C841        C842   1.416       .  A
C842        C843   1.516       .  S
C843        F847   1.385       .  S
C843        F848   1.383       .  S
C843        F849   1.383       .  S
C846        F850   1.382       .  S
C846        F851   1.384       .  S
C846        F852   1.385   1_556  S
C853        C854   1.407       .  A
C853        C858   1.402       .  A
C853        H860   1.082       .  S
C854        C855   1.420       .  A
C855        C856   1.401       .  A
C855        C862   1.522       .  S
C856        C857   1.404       .  A
C856        H861   1.083       .  S
C857        C858   1.417       .  A
C858        C859   1.522       .  S
C859        F863   1.385       .  S
C859        F864   1.383       .  S
C859        F865   1.383       .  S
C862        F866   1.383       .  S
C862        F867   1.382       .  S
C862        F868   1.385       .  S
C869        C870   1.398       .  A
C869        H876   1.085       .  S
C871        C872   1.403   1_554  A
C871        C878   1.522       .  S
C872        C873   1.400       .  A
C872        H877   1.084       .  S
C873        C874   1.408       .  A
C875        F879   1.384       .  S
C875        F881   1.383       .  S
C878        F882   1.383   1_554  S
C878        F883   1.384       .  S
C878        F884   1.385       .  S
C885        C886   1.403       .  A
C885        C890   1.400       .  A
C885        H892   1.081       .  S
C886        C887   1.417       .  A
C887        C888   1.403       .  A
C887        C894   1.520       .  S
C888        C889   1.401       .  A
C888        H893   1.084       .  S
C889        C890   1.413       .  A
C890        C891   1.521       .  S
C891        F895   1.385       .  S
C891        F896   1.384       .  S
C891        F897   1.382       .  S
C894        F898   1.383       .  S
C894        F899   1.383       .  S
C894        F900   1.385       .  S
C901        C902   1.400       .  A
C901        C906   1.398       .  A
C901        H908   1.084   1_655  S
C902        C903   1.412       .  A
C903        C904   1.402       .  A
C903        C910   1.518       .  S
C904        C905   1.401       .  A
C904        H909   1.084       .  S
C905        C906   1.413       .  A
C906        C907   1.520       .  S
C907        F911   1.385       .  S
C907        F912   1.384       .  S
C907        F913   1.383       .  S
C910        F914   1.382       .  S
C910        F915   1.384       .  S
C910        F916   1.384       .  S
C917        C918   1.396       .  A
C917        C922   1.402       .  A
C917        H924   1.084       .  S
C918        C919   1.410       .  A
C919        C920   1.397       .  A
C919        C926   1.517       .  S
C920        C921   1.404       .  A
C920        H925   1.084       .  S
C921        C922   1.427       .  A
C922        C923   1.524       .  S
C923        F927   1.385       .  S
C923        F928   1.384       .  S
C923        F929   1.383       .  S
C926        F930   1.383       .  S
C926        F931   1.384       .  S
C926        F932   1.383       .  S
C933        C934   1.404       .  A
C933        H940   1.084       .  S
C935        C936   1.399       .  A
C935        C942   1.520       .  S
C936        C937   1.402       .  A
C936        H941   1.084       .  S
C937        C938   1.413       .  A
C938        C939   1.521       .  S
C939        F944   1.384       .  S
C942        F946   1.384       .  S
C942        F948   1.385       .  S
C949        C950   1.407       .  A
C949        C954   1.411       .  A
C949        H956   1.080       .  S
C950        C951   1.422       .  A
C951        C952   1.406       .  A
C951        C958   1.521       .  S
C952        C953   1.402       .  A
C952        H957   1.084       .  S
C953        C954   1.415       .  A
C954        C955   1.517       .  S
C955        F959   1.385       .  S
C955        F960   1.382       .  S
C955        F961   1.384       .  S
C958        F962   1.382       .  S
C958        F963   1.384       .  S
C958        F964   1.385       .  S
C965        C966   1.404       .  A
C965        H972   1.084       .  S
C966        C967   1.413       .  A
C967        C968   1.402   1_556  A
C967        C974   1.519       .  S
C968        H973   1.083       .  S
C969        C970   1.421       .  A
C970        C971   1.521       .  S
C971        F975   1.385   1_565  S
C971        F976   1.383   1_565  S
C971        F977   1.384   1_565  S
C974        F978   1.383       .  S
C974        F979   1.383       .  S
C974        F980   1.385   1_556  S
C981        C982   1.414       .  A
C981        C986   1.404       .  A
C981        H988   1.082       .  S
C982        C983   1.417       .  A
C983        C984   1.408       .  A
C983        C990   1.517       .  S
C984        C985   1.410       .  A
C984        H989   1.083       .  S
C985        C986   1.414       .  A
C986        C987   1.520   1_565  S
C987        F991   1.385       .  S
C987        F992   1.384       .  S
C987        F993   1.381       .  S
C990        F994   1.382       .  S
C990        F995   1.384       .  S
C990        F996   1.385       .  S
C997        C998   1.399       .  A
C997       C1002   1.399       .  A
C997       H1004   1.084       .  S
C998        C999   1.416       .  A
C999       C1000   1.406       .  A
C999       C1006   1.517       .  S
C1000      C1001   1.404       .  A
C1000      H1005   1.083       .  S
C1001      C1002   1.418       .  A
C1002      C1003   1.520       .  S
C1003      F1007   1.385       .  S
C1003      F1008   1.384       .  S
C1003      F1009   1.382       .  S
C1006      F1010   1.381       .  S
C1006      F1011   1.384       .  S
C1006      F1012   1.385       .  S
C1013      C1014   1.398       .  A
C1013      C1018   1.403       .  A
C1013      H1020   1.084       .  S
C1014      C1015   1.412       .  A
C1015      C1016   1.396       .  A
C1015      C1022   1.521       .  S
C1016      C1017   1.403       .  A
C1016      H1021   1.083       .  S
C1017      C1018   1.420       .  A
C1018      C1019   1.520   1_655  S
C1019      F1023   1.385       .  S
C1019      F1024   1.384   1_455  S
C1019      F1025   1.383       .  S
C1022      F1026   1.383       .  S
C1022      F1027   1.383       .  S
C1022      F1028   1.385       .  S
C1029      C1034   1.397       .  A
C1031      C1032   1.405       .  A
C1032      C1033   1.398       .  A
C1032      H1037   1.078       .  S
C1033      C1034   1.413       .  A
C1034      C1035   1.516       .  S
C1035      F1039   1.384   1_655  S
C1035      F1040   1.384       .  S
C1035      F1041   1.383   1_655  S
C1038      F1042   1.383       .  S
C1038      F1043   1.384       .  S
C1045      C1046   1.401       .  A
C1045      C1050   1.409       .  A
C1045      H1052   1.083       .  S
C1046      C1047   1.416       .  A
C1047      C1048   1.403       .  A
C1047      C1054   1.519       .  S
C1048      C1049   1.402       .  A
C1048      H1053   1.083       .  S
C1049      C1050   1.421       .  A
C1050      C1051   1.517       .  S
C1051      F1055   1.385       .  S
C1051      F1056   1.381       .  S
C1051      F1057   1.384       .  S
C1054      F1058   1.381   1_565  S
C1054      F1059   1.384       .  S
C1054      F1060   1.385       .  S
C1061      C1062   1.401       .  A
C1061      H1068   1.083       .  S
C1062      C1063   1.414       .  A
C1063      C1064   1.399       .  A
C1063      C1070   1.522       .  S
C1064      H1069   1.083       .  S
C1065      C1066   1.422       .  A
C1066      C1067   1.521       .  S
C1067      F1071   1.385       .  S
C1067      F1072   1.384       .  S
C1067      F1073   1.382       .  S
C1070      F1074   1.382       .  S
C1070      F1075   1.384       .  S
C1070      F1076   1.385       .  S
C1077      C1078   1.395       .  A
C1077      C1082   1.404       .  A
C1077      H1084   1.079       .  S
C1078      C1079   1.411       .  A
C1079      C1080   1.401       .  A
C1079      C1086   1.513       .  S
C1080      C1081   1.406       .  A
C1080      H1085   1.084       .  S
C1081      C1082   1.434       .  A
C1082      C1083   1.525       .  S
C1083      F1087   1.385       .  S
C1083      F1088   1.384       .  S
C1083      F1089   1.384       .  S
C1086      F1090   1.384       .  S
C1086      F1091   1.382       .  S
C1086      F1092   1.384       .  S
C1093      C1094   1.398       .  A
C1093      C1098   1.406       .  A
C1093      H1100   1.083       .  S
C1094      C1095   1.414       .  A
C1095      C1096   1.408       .  A
C1095      C1102   1.515       .  S
C1096      C1097   1.407       .  A
C1096      H1101   1.083       .  S
C1097      C1098   1.428       .  A
C1098      C1099   1.522       .  S
C1099      F1103   1.385       .  S
C1099      F1104   1.384       .  S
C1099      F1105   1.383       .  S
C1102      F1106   1.384       .  S
C1102      F1107   1.380       .  S
C1102      F1108   1.385       .  S
C1109      C1110   1.404       .  A
C1109      C1114   1.408       .  A
C1109      H1116   1.084       .  S
C1110      C1111   1.410       .  A
C1111      C1112   1.397       .  A
C1111      C1118   1.518       .  S
C1112      C1113   1.406       .  A
C1112      H1117   1.083       .  S
C1113      C1114   1.419       .  A
C1114      C1115   1.519       .  S
C1115      F1119   1.385       .  S
C1115      F1120   1.383       .  S
C1115      F1121   1.383       .  S
C1118      F1122   1.379       .  S
C1118      F1123   1.383       .  S
C1118      F1124   1.385       .  S
C1125      C1126   1.405       .  A
C1125      C1130   1.404       .  A
C1125      H1132   1.084       .  S
C1126      C1127   1.412       .  A
C1128      C1129   1.405   1_556  A
C1128      H1133   1.084       .  S
C1130      C1131   1.519       .  S
C1131      F1135   1.384       .  S
C1131      F1136   1.384       .  S
C1131      F1137   1.382       .  S
C1134      F1140   1.385   1_554  S
