geometry optimzed in LAMMPS
_audit_creation_date              2020-11-30 
_audit_creation_method            'lammps2cif' 
_symmetry_space_group_name_H-M    'P1' 
_symmetry_Int_Tables_number       1 
_symmetry_cell_setting            triclinic 
loop_ 
_symmetry_equiv_pos_as_xyz 
  x,y,z 
_cell_length_a                    28.56720819 
_cell_length_b                    28.617552199423695 
_cell_length_c                    38.712945994852056 
_cell_angle_alpha                 90.24227593340059 
_cell_angle_beta                  89.76857779359383 
_cell_angle_gamma                 89.90152304639109 
loop_ 
_atom_site_label 
_atom_site_type_symbol 
_atom_site_fract_x 
_atom_site_fract_y 
_atom_site_fract_z 
_atom_site_charge 
O1          O  0.90888473  0.26978699  0.47699103    -0.55500
C2          C  0.01275935  0.17867048  0.01539201     0.77200
O3          O  0.98683382  0.31526117  0.06977526    -0.56600
C4          C  0.88454489  0.30344463  0.48879073     0.77100
C5          C  0.89244156  0.20818820  0.08154937     0.79500
Cd6        Cd  0.95101434  0.25539024  0.03215331     1.37500
O7          O  0.98869398  0.19823034  0.49204542    -0.55500
O8          O  0.88629107  0.20407027  0.04931852    -0.54300
C9          C  0.01556787  0.33043350  0.04749136     0.79500
O10         O  0.92490002  0.23542550  0.09100857    -0.56700
O11         O  0.00788098  0.19486885  0.04557486    -0.55100
O12         O  0.89060714  0.31354585  0.02029381    -0.55100
O13         O  0.01416701  0.31084724  0.01815319    -0.54300
O14         O  0.90989582  0.23407417  0.32775322    -0.55500
C15         C  0.00683236  0.32421177  0.28426633     0.77200
O16         O  0.98088651  0.19268560  0.23027789    -0.56600
C17         C  0.88292449  0.20112204  0.31876719     0.77100
C18         C  0.87856753  0.29607603  0.22315945     0.79500
Cd19       Cd  0.94169245  0.24919703  0.26960686     1.37500
O20         O  0.97778428  0.31000301  0.30671139    -0.55500
O21         O  0.88175470  0.30685846  0.25478723    -0.54300
C22         C  0.00588411  0.17445362  0.25364578     0.79500
O23         O  0.90312887  0.26158649  0.21322763    -0.56700
O24         O  0.00527630  0.30383428  0.25525720    -0.55100
O25         O  0.88178189  0.19185750  0.28677628    -0.55100
O26         O  0.00061885  0.19079092  0.28379136    -0.54300
O27         O  0.74925093  0.44642637  0.13844931    -0.55500
C28         C  0.65919772  0.54374246  0.09964736     0.77200
O29         O  0.78087531  0.51754107  0.03820275    -0.56600
C30         C  0.77669056  0.41446467  0.12806413     0.77100
C31         C  0.67831457  0.41351636  0.03800285     0.79500
Cd32       Cd  0.73022568  0.47680253  0.08089378     1.37500
O33         O  0.67235002  0.51227829  0.12040567    -0.55500
O34         O  0.66652217  0.42291503  0.06875297    -0.54300
C35         C  0.80428267  0.53903603  0.06103448     0.79500
O36         O  0.71479287  0.43373093  0.02683942    -0.56700
O37         O  0.67917857  0.54393607  0.07045414    -0.55100
O38         O  0.78251392  0.41144262  0.09569169    -0.55100
O39         O  0.79385441  0.53033993  0.09210528    -0.54300
O40         O  0.73954150  0.44796284  0.41114429    -0.55500
C41         C  0.64419174  0.54177005  0.36658025     0.77200
O42         O  0.77520382  0.51371718  0.31165149    -0.56600
C43         C  0.76508428  0.41450814  0.40062464     0.77100
C44         C  0.67379565  0.40916886  0.30850907     0.79500
Cd45       Cd  0.71929083  0.47618436  0.35256019     1.37500
O46         O  0.66570387  0.52095652  0.39061847    -0.55500
O47         O  0.66020213  0.41714689  0.33918249    -0.54300
C48         C  0.79545849  0.53800239  0.33458768     0.79500
O49         O  0.70910250  0.43219011  0.29822743    -0.56700
O50         O  0.65640206  0.53107684  0.33612074    -0.55100
O51         O  0.76758844  0.40883998  0.36827833    -0.55100
O52         O  0.78035782  0.53317619  0.36503206    -0.54300
O53         O  0.74811178  0.07235358  0.16592776    -0.55500
C54         C  0.66211095  0.96460953  0.20047803     0.77200
O55         O  0.79522260  0.99103430  0.25929174    -0.56600
C56         C  0.78506244  0.09311965  0.17554463     0.77100
C57         C  0.69185540  0.08680009  0.26954424     0.79500
Cd58       Cd  0.73769204  0.02717377  0.21980127     1.37500
O59         O  0.69171490  0.97841299  0.17830815    -0.55500
O60         O  0.71521816  0.05125547  0.27865102    -0.54300
C61         C  0.81126701  0.96230828  0.23723463     0.79500
O62         O  0.69136381  0.09566161  0.23751976    -0.56700
O63         O  0.66670994  0.98122013  0.23052696    -0.55100
O64         O  0.79910625  0.08386662  0.20570843    -0.55100
O65         O  0.79322080  0.96410034  0.20753537    -0.54300
O66         O  0.74251829  0.06762868  0.41018199    -0.55500
C67         C  0.65111253  0.97351952  0.45227270     0.77200
O68         O  0.79066585  0.99585994  0.00374691    -0.56600
C69         C  0.77694311  0.09295216  0.41875067     0.77100
C70         C  0.68594472  0.09332474  0.01937629     0.79500
Cd71       Cd  0.72963168  0.03346111  0.46791656     1.37500
O72         O  0.66404699  0.00476906  0.43122260    -0.55500
O73         O  0.68072469  0.09959172  0.48729952    -0.54300
C74         C  0.80469291  0.96781238  0.48045821     0.79500
O75         O  0.71336186  0.06055136  0.02786396    -0.56700
O76         O  0.67481113  0.97028752  0.47963549    -0.55100
O77         O  0.78826931  0.09176556  0.45033235    -0.55100
O78         O  0.78398594  0.97045771  0.45172389    -0.54300
O79         O  0.53589594  0.26541125  0.22325687    -0.55500
C80         C  0.44321111  0.17345635  0.17668738     0.77200
O81         O  0.47193381  0.30431127  0.12354597    -0.56600
C82         C  0.56949902  0.29158882  0.21434221     0.77100
C83         C  0.57357447  0.19989015  0.11728933     0.79500
Cd84       Cd  0.50939501  0.24760952  0.16375725     1.37500
O85         O  0.46997541  0.18843910  0.20030230    -0.55500
O86         O  0.56502932  0.18524576  0.14748009    -0.54300
C87         C  0.44599914  0.32323802  0.14629240     0.79500
O88         O  0.55310361  0.23747620  0.10882023    -0.56700
O89         O  0.44756151  0.19263643  0.14750131    -0.55100
O90         O  0.57631688  0.29582918  0.18219295    -0.55100
O91         O  0.45044641  0.30781308  0.17662183    -0.54300
O92         O  0.54804347  0.22564367  0.35198137    -0.55500
C93         C  0.44053233  0.31126428  0.38983722     0.77200
O94         O  0.46729523  0.18595076  0.44722711    -0.56600
C95         C  0.57347192  0.19258612  0.36301386     0.77100
C96         C  0.56715752  0.29091226  0.45243564     0.79500
Cd97       Cd  0.50707311  0.23944311  0.40732250     1.37500
O98         O  0.46747773  0.29331756  0.36728955    -0.55500
O99         O  0.56573483  0.29789207  0.42023632    -0.54300
C100        C  0.44382861  0.16520310  0.42406661     0.79500
O101        O  0.54131205  0.25860413  0.46410081    -0.56700
O102        O  0.44464708  0.29576037  0.42018394    -0.55100
O103        O  0.56842531  0.18195753  0.39452251    -0.55100
O104        O  0.45106244  0.17796711  0.39327102    -0.54300
O105        O  0.21580692  0.55961273  0.15843430    -0.55500
C106        C  0.30587084  0.46444275  0.11540715     0.77200
O107        O  0.18011990  0.49096320  0.05768766    -0.56600
C108        C  0.18730107  0.59111878  0.14928343     0.77100
C109        C  0.27872882  0.59733596  0.05474766     0.79500
Cd110      Cd  0.23246405  0.53105721  0.09952277     1.37500
O111        O  0.28900486  0.49154312  0.13825016    -0.55500
O112        O  0.29311889  0.58862517  0.08491945    -0.54300
C113        C  0.15579413  0.47017355  0.08031970     0.79500
O114        O  0.24225891  0.57566524  0.04533769    -0.56700
O115        O  0.28895767  0.46866133  0.08544316    -0.55100
O116        O  0.18116945  0.59565463  0.11712862    -0.55100
O117        O  0.16671967  0.47826905  0.11135816    -0.54300
O118        O  0.24826667  0.55725570  0.28151572    -0.55500
C119        C  0.15176092  0.45962745  0.31609785     0.77200
O120        O  0.28282999  0.47825633  0.37786250    -0.56600
C121        C  0.28129356  0.58224151  0.29312385     0.77100
C122        C  0.18442721  0.58133296  0.38387136     0.79500
Cd123      Cd  0.22997086  0.51811664  0.33660875     1.39100
O124        O  0.17781217  0.47868796  0.29365839    -0.55500
O125        O  0.18025452  0.58490182  0.35144070    -0.54300
C126        C  0.30118806  0.45118976  0.35566426     0.79500
O127        O  0.21057261  0.54866870  0.39453072    -0.56700
O128        O  0.16189035  0.46825075  0.34720101    -0.55100
O129        O  0.28991350  0.57794635  0.32498662    -0.55100
O130        O  0.28642253  0.45536697  0.32510303    -0.54300
O131        O  0.40747324  0.76298487  0.10423252    -0.55500
C132        C  0.51785944  0.68051840  0.13641057     0.77200
O133        O  0.49104126  0.81115513  0.19490254    -0.56600
C134        C  0.38598637  0.79914387  0.11476166     0.77100
C135        C  0.39425965  0.69981407  0.20382914     0.79500
Cd136      Cd  0.45315698  0.75187197  0.15732785     1.37500
O137        O  0.49475576  0.70336968  0.11423479    -0.55500
O138        O  0.39357234  0.69413452  0.17141842    -0.54300
C139        C  0.52026571  0.82446199  0.17221635     0.79500
O140        O  0.42206753  0.73081279  0.21509112    -0.56700
O141        O  0.50993237  0.69025220  0.16778789    -0.55100
O142        O  0.39529206  0.81260732  0.14513550    -0.55100
O143        O  0.51752967  0.80458008  0.14308195    -0.54300
O144        O  0.40390837  0.77406248  0.35440188    -0.55500
C145        C  0.50693433  0.68748535  0.39368163     0.77200
O146        O  0.47907363  0.82132365  0.44814045    -0.56600
C147        C  0.37927299  0.80883229  0.36374389     0.77100
C148        C  0.38251717  0.71526238  0.46026355     0.79500
Cd149      Cd  0.44199236  0.76220254  0.41056854     1.37500
O150        O  0.47553962  0.69955072  0.37244145    -0.55500
O151        O  0.37564430  0.71221606  0.42809068    -0.54300
C152        C  0.50517734  0.83839029  0.42484197     0.79500
O153        O  0.41551804  0.74187124  0.46963398    -0.56700
O154        O  0.50770541  0.71007525  0.42174953    -0.55100
O155        O  0.38325720  0.82145281  0.39499057    -0.55100
O156        O  0.50116582  0.82087620  0.39494266    -0.54300
O157        O  0.21405618  0.93022635  0.15754918    -0.55500
C158        C  0.30084304  0.03255611  0.19987370     0.77200
O159        O  0.16216212  0.00597205  0.24992929    -0.56600
C160        C  0.17864953  0.90642046  0.16647942     0.77100
C161        C  0.26730745  0.91068085  0.26489298     0.79500
Cd162      Cd  0.22404694  0.96964772  0.21399164     1.37500
O163        O  0.28441419  0.00662077  0.17621907    -0.55500
O164        O  0.27438157  0.90476455  0.23287009    -0.54300
C165        C  0.14868560  0.03464912  0.22717761     0.79500
O166        O  0.23848467  0.94246490  0.27324994    -0.56700
O167        O  0.28200467  0.02848997  0.22926301    -0.55100
O168        O  0.16540732  0.91120327  0.19752697    -0.55100
O169        O  0.17002205  0.03277439  0.19852359    -0.54300
O170        O  0.21292222  0.92578161  0.42100328    -0.55500
C171        C  0.29920144  0.03083183  0.45616661     0.77200
O172        O  0.16551603  0.00695327  0.01220719    -0.56600
C173        C  0.17732110  0.90366703  0.43172478     0.77100
C174        C  0.27131468  0.90925002  0.02312218     0.79500
Cd175      Cd  0.22471990  0.96893844  0.47497747     1.37500
O176        O  0.27988290  0.00523339  0.43355970    -0.55500
O177        O  0.27376746  0.90266441  0.49084227    -0.54300
C178        C  0.15036613  0.03396179  0.48887802     0.79500
O179        O  0.24614768  0.94317828  0.03321948    -0.56700
O180        O  0.28408045  0.02672391  0.48669735    -0.55100
O181        O  0.16460365  0.91163170  0.46255242    -0.55100
O182        O  0.16945082  0.02999979  0.45949461    -0.54300
O183        O  0.94795880  0.69904447  0.00256192    -0.55500
C184        C  0.07200344  0.79583285  0.06876610     0.77200
O185        O  0.05527791  0.73756903  0.46455045    -0.56600
C186        C  0.94363721  0.68036365  0.03195330     0.77100
C187        C  0.94812972  0.82779168  0.00408906     0.79500
Cd188      Cd  0.01150804  0.75201263  0.01898217     1.37500
O189        O  0.04215637  0.76546081  0.07774439    -0.55500
O190        O  0.95360954  0.81105306  0.03393920    -0.54300
C191        C  0.07508108  0.70049516  0.47495413     0.79500
O192        O  0.97333735  0.81004055  0.48032860    -0.56700
O193        O  0.07463084  0.80437302  0.03675608    -0.55100
O194        O  0.97099964  0.69508438  0.05527361    -0.55100
O195        O  0.06622349  0.68868439  0.00573490    -0.54300
O196        O  0.03423109  0.76415222  0.34904915    -0.55500
C197        C  0.94090516  0.67318408  0.30477499     0.77200
O198        O  0.97230957  0.79896736  0.24862782    -0.56600
C199        C  0.06892948  0.78844211  0.33952003     0.77100
C200        C  0.07308976  0.69739384  0.24529342     0.79500
Cd201      Cd  0.00851306  0.74491305  0.29025653     1.37500
O202        O  0.96727948  0.68962586  0.32806596    -0.55500
O203        O  0.06385509  0.68251295  0.27531467    -0.54300
C204        C  0.94945928  0.82190134  0.27111299     0.79500
O205        O  0.05275853  0.73486481  0.23646182    -0.56700
O206        O  0.94656659  0.68964211  0.27479632    -0.55100
O207        O  0.07649670  0.79064316  0.30736845    -0.55100
O208        O  0.95498898  0.80963422  0.30212104    -0.54300
C209        C  0.16992059  0.85651871  0.37732810     0.25900
C210        C  0.15117896  0.87103914  0.40930033    -0.22200
C211        C  0.10630722  0.85543125  0.41907419     0.20800
C212        C  0.08003644  0.82757467  0.39674984     0.25900
C213        C  0.09824000  0.81433018  0.36434189    -0.22100
C214        C  0.14373178  0.82839196  0.35511353     0.20800
F215        F  0.16295930  0.81506192  0.32447145    -0.12100
F216        F  0.21353410  0.86966509  0.36735918    -0.14400
F217        F  0.03604652  0.81511255  0.40638841    -0.14400
F218        F  0.08688212  0.86846293  0.44972395    -0.12100
C219        C  0.16509701  0.87510473  0.10655632     0.25900
C220        C  0.15336089  0.87546761  0.14190980    -0.22200
C221        C  0.11573360  0.84751081  0.15321137     0.20800
C222        C  0.08972205  0.82113780  0.12958025     0.25900
C223        C  0.10138724  0.82111683  0.09421259    -0.22100
C224        C  0.13983890  0.84789524  0.08309541     0.20800
F225        F  0.15270555  0.84855534  0.04929037    -0.12100
F226        F  0.20007624  0.90234281  0.09426686    -0.14400
F227        F  0.05175997  0.79736454  0.14121026    -0.14400
F228        F  0.10314606  0.84643084  0.18706532    -0.12100
C229        C  0.31059687  0.83859558  0.28292497     0.25900
C230        C  0.29271134  0.88309319  0.29109934    -0.22200
C231        C  0.30175114  0.90222944  0.32393961     0.20800
C232        C  0.32921536  0.87792723  0.34776589     0.25900
C233        C  0.34805129  0.83374365  0.33932081    -0.22100
C234        C  0.33772891  0.81414848  0.30681141     0.20800
F235        F  0.35381358  0.77113928  0.29799815    -0.12100
F236        F  0.30168984  0.81850440  0.25180058    -0.14400
F237        F  0.33849315  0.89850949  0.37865162    -0.14400
F238        F  0.28566221  0.94543402  0.33255817    -0.12100
C239        C  0.30651449  0.89501314  0.08133097     0.25900
C240        C  0.29736255  0.87939778  0.04751858    -0.22200
C241        C  0.31510684  0.83576981  0.03678367     0.20800
C242        C  0.34243608  0.80896811  0.05904788     0.25900
C243        C  0.35296342  0.82522018  0.09248918    -0.22100
C244        C  0.33363046  0.86805909  0.10366407     0.20800
F245        F  0.34201615  0.88484398  0.13590477    -0.12100
F246        F  0.29099040  0.93737972  0.09244883    -0.14400
F247        F  0.35915871  0.76738666  0.04751814    -0.14400
F248        F  0.30655253  0.81907052  0.50452592    -0.12100
C249        C  0.14075149  0.65571434  0.39588389     0.25900
C250        C  0.15929983  0.61321052  0.40785062    -0.22200
C251        C  0.15195691  0.60074688  0.44257615     0.20800
C252        C  0.12582558  0.62970098  0.46460771     0.25900
C253        C  0.10594957  0.67161152  0.45234421    -0.22100
C254        C  0.11425957  0.68439420  0.41780260     0.20800
F255        F  0.09602244  0.72429292  0.40485139    -0.12100
F256        F  0.14804183  0.66966516  0.36280570    -0.14400
F257        F  0.11923000  0.61590619  0.99779296    -0.14400
F258        F  0.16861725  0.55969560  0.45504643    -0.12100
C259        C  0.37130406  0.67138890  0.26296857     0.25900
C260        C  0.36436953  0.67118702  0.22698588    -0.22200
C261        C  0.32930206  0.64213729  0.21313095     0.20800
C262        C  0.30205838  0.61394824  0.23463038     0.25900
C263        C  0.30891701  0.61402566  0.27061656    -0.22100
C264        C  0.34363265  0.64351139  0.28456266     0.20800
F265        F  0.35143336  0.64511469  0.31912604    -0.12100
F266        F  0.40589034  0.69743045  0.27730189    -0.14400
F267        F  0.26960791  0.58576273  0.21990302    -0.14400
F268        F  0.32146865  0.64035879  0.17856755    -0.12100
C269        C  0.14011795  0.66226043  0.16442545     0.25900
C270        C  0.16133655  0.62015814  0.17466131    -0.22200
C271        C  0.15503502  0.60472148  0.20883218     0.20800
C272        C  0.12738313  0.63032215  0.23204841     0.25900
C273        C  0.10512429  0.67186165  0.22154902    -0.22100
C274        C  0.11236492  0.68774496  0.18757829     0.20800
F275        F  0.09173548  0.72750972  0.17631851    -0.12100
F276        F  0.14575109  0.67873683  0.13182313    -0.14400
F277        F  0.12154470  0.61357711  0.26454535    -0.14400
F278        F  0.17371144  0.56359043  0.21945095    -0.12100
C279        C  0.28371082  0.64486363  0.50023850     0.25900
C280        C  0.30386776  0.63019797  0.03155185    -0.22200
C281        C  0.34921437  0.64589996  0.03987432     0.20800
C282        C  0.37426495  0.67422130  0.01699034     0.25900
C283        C  0.35454363  0.68791464  0.48536914    -0.22100
C284        C  0.30889478  0.67312320  0.47730773     0.20800
F285        F  0.28848850  0.68603509  0.44719270    -0.12100
F286        F  0.23955755  0.63189622  0.49167030    -0.14400
F287        F  0.41859259  0.68692509  0.02536471    -0.14400
F288        F  0.37016853  0.63275959  0.06972844    -0.12100
C289        C  0.38142125  0.37223941  0.40761904     0.25900
C290        C  0.40582441  0.34804695  0.38129146    -0.22200
C291        C  0.39618644  0.35894325  0.34665004     0.20800
C292        C  0.36241704  0.39243471  0.33844791     0.25900
C293        C  0.33770787  0.41638161  0.36468445    -0.22100
C294        C  0.34795882  0.40618537  0.39940211     0.20800
F295        F  0.32515590  0.42847982  0.42555986    -0.12100
F296        F  0.38986388  0.36326293  0.44145409    -0.14400
F297        F  0.35410929  0.40135214  0.30460654    -0.14400
F298        F  0.41891017  0.33669277  0.32045096    -0.12100
C299        C  0.35614141  0.06665667  0.41425557     0.25900
C300        C  0.33719573  0.06410713  0.44781593    -0.22200
C301        C  0.35469556  0.09422222  0.47360999     0.20800
C302        C  0.39013247  0.12608359  0.46605939     0.25900
C303        C  0.40872445  0.12902489  0.43247742    -0.22100
C304        C  0.39154882  0.09877602  0.40667732     0.20800
F305        F  0.40907052  0.10007321  0.37403650    -0.12100
F306        F  0.34035623  0.03832301  0.38861161    -0.14400
F307        F  0.40503443  0.15516551  0.49153266    -0.14400
F308        F  0.33693092  0.09376962  0.50620130    -0.12100
C309        C  0.39773987  0.36897030  0.10387613     0.25900
C310        C  0.41171221  0.36073409  0.13813390    -0.22200
C311        C  0.39122274  0.38763256  0.16480901     0.20800
C312        C  0.35728044  0.42147525  0.15745608     0.25900
C313        C  0.34294988  0.42945345  0.12320809    -0.22100
C314        C  0.36388334  0.40292159  0.09648835     0.20800
F315        F  0.35146834  0.40945212  0.06303559    -0.12100
F316        F  0.41583111  0.34328166  0.07743177    -0.14400
F317        F  0.33799921  0.44587125  0.18411848    -0.14400
F318        F  0.40397357  0.38132241  0.19822314    -0.12100
C319        C  0.35465163  0.07700382  0.16016343     0.25900
C320        C  0.33924662  0.06657156  0.19383712    -0.22200
C321        C  0.35973615  0.09048273  0.22190456     0.20800
C322        C  0.39394277  0.12457725  0.21638962     0.25900
C323        C  0.40840387  0.13588692  0.18269015    -0.22100
C324        C  0.38849768  0.11154385  0.15463970     0.20800
F325        F  0.40176631  0.12105544  0.12169487    -0.12100
F326        F  0.33644190  0.05446333  0.13237631    -0.14400
F327        F  0.41180873  0.14748131  0.24414477    -0.14400
F328        F  0.34654496  0.08123363  0.25491113    -0.12100
C329        C  0.86452792  0.91025445  0.45835571     0.25900
C330        C  0.84284496  0.93345980  0.48638846    -0.22200
C331        C  0.85732746  0.92267493  0.02012286     0.20800
C332        C  0.89197672  0.88900117  0.02573534     0.25900
C333        C  0.91330729  0.86537068  0.99773373    -0.22100
C334        C  0.89938251  0.87668335  0.46396039     0.20800
F335        F  0.91851126  0.85441583  0.43625123    -0.12100
F336        F  0.85204566  0.91991566  0.42534076    -0.14400
F337        F  0.90426844  0.87937490  0.05880651    -0.14400
F338        F  0.83714110  0.94376607  0.04793186    -0.12100
C339        C  0.59346758  0.91327269  0.47216633     0.25900
C340        C  0.61104167  0.94182599  0.44552275    -0.22200
C341        C  0.59087083  0.93843437  0.41246610     0.20800
C342        C  0.55585655  0.90537498  0.40581340     0.25900
C343        C  0.53955251  0.87579966  0.43224873    -0.22100
C344        C  0.55806041  0.88084958  0.46562911     0.20800
F345        F  0.54332871  0.85300611  0.49180831    -0.12100
F346        F  0.61075582  0.91629080  0.50472176    -0.14400
F347        F  0.53793025  0.90234045  0.37344865    -0.14400
F348        F  0.60564487  0.96630156  0.38630620    -0.12100
C349        C  0.64194004  0.16594774  0.03634826     0.25900
C350        C  0.66020657  0.12196273  0.04531146    -0.22200
C351        C  0.65129308  0.10455487  0.07865309     0.20800
C352        C  0.62397991  0.13014236  0.10222154     0.25900
C353        C  0.60497714  0.17390327  0.09306398    -0.22100
C354        C  0.61496828  0.19169585  0.05996366     0.20800
F355        F  0.59827189  0.23394063  0.05011181    -0.12100
F356        F  0.65006004  0.18420927  0.50456884    -0.14400
F357        F  0.61527629  0.11128365  0.13372546    -0.14400
F358        F  0.66745673  0.06184677  0.08812062    -0.12100
C359        C  0.89914211  0.86324408  0.22814614     0.25900
C360        C  0.91690311  0.86003346  0.26185132    -0.22200
C361        C  0.90117097  0.89201633  0.28711036     0.20800
C362        C  0.86746395  0.92568880  0.27905229     0.25900
C363        C  0.84864384  0.92811161  0.24553797    -0.22100
C364        C  0.86531808  0.89674149  0.22009035     0.20800
F365        F  0.84831897  0.89761407  0.18739668    -0.12100
F366        F  0.91312225  0.83278920  0.20314458    -0.14400
F367        F  0.85284329  0.95538741  0.30433897    -0.14400
F368        F  0.91827278  0.89073626  0.31978042    -0.12100
C369        C  0.55337505  0.88897924  0.20902838     0.25900
C370        C  0.55598165  0.86101343  0.17911242    -0.22200
C371        C  0.59343355  0.86809953  0.15584731     0.20800
C372        C  0.62735251  0.90226183  0.16237704     0.25900
C373        C  0.62478510  0.93015630  0.19235746    -0.22100
C374        C  0.58728932  0.92310060  0.21555982     0.20800
F375        F  0.58319823  0.94929589  0.24474124    -0.12100
F376        F  0.51787041  0.88354722  0.23207703    -0.14400
F377        F  0.66353333  0.90686733  0.13979852    -0.14400
F378        F  0.59814014  0.84113733  0.12708193    -0.12100
C379        C  0.62125414  0.12145448  0.34871389     0.25900
C380        C  0.60660522  0.16698272  0.34021617    -0.22200
C381        C  0.62272047  0.18699563  0.30923194     0.20800
C382        C  0.65170146  0.16154436  0.28675723     0.25900
C383        C  0.66504911  0.11545776  0.29473763    -0.22100
C384        C  0.64999263  0.09594420  0.32618148     0.20800
F385        F  0.66118168  0.05125096  0.33449268    -0.12100
F386        F  0.60607243  0.10060984  0.37814066    -0.14400
F387        F  0.66663271  0.18208146  0.25714553    -0.14400
F388        F  0.61057105  0.23131476  0.30065473    -0.12100
C389        C  0.57395409  0.58913133  0.34864948     0.25900
C390        C  0.60772588  0.57759722  0.37366792    -0.22200
C391        C  0.60764195  0.60208937  0.40520649     0.20800
C392        C  0.57496362  0.63750204  0.41156734     0.25900
C393        C  0.54114986  0.64931506  0.38659263    -0.22100
C394        C  0.54090154  0.62446838  0.35508273     0.20800
F395        F  0.50892288  0.63443201  0.33031185    -0.12100
F396        F  0.57258385  0.56596515  0.31798738    -0.14400
F397        F  0.57706299  0.66056240  0.44224873    -0.14400
F398        F  0.64034005  0.59296268  0.42964040    -0.12100
C399        C  0.85962368  0.59201745  0.35362335     0.25900
C400        C  0.83418708  0.57081192  0.32664387    -0.22200
C401        C  0.84531202  0.58248564  0.29231017     0.20800
C402        C  0.88007085  0.61550997  0.28516151     0.25900
C403        C  0.90503004  0.63714702  0.31219377    -0.22100
C404        C  0.89461092  0.62465586  0.34647820     0.20800
F405        F  0.91758016  0.64467353  0.37337558    -0.12100
F406        F  0.85071785  0.58140036  0.38716589    -0.14400
F407        F  0.88893705  0.62641514  0.25166792    -0.14400
F408        F  0.82198621  0.56268653  0.26551004    -0.12100
C409        C  0.64377764  0.33213973  0.23150201     0.25900
C410        C  0.59817000  0.31740991  0.23989216    -0.22200
C411        C  0.57899992  0.33036525  0.27207886     0.20800
C412        C  0.60410094  0.35900521  0.29475771     0.25900
C413        C  0.64895259  0.37552115  0.28573861    -0.22100
C414        C  0.66891464  0.36081666  0.25417432     0.20800
F415        F  0.71274334  0.37430464  0.24506789    -0.12100
F416        F  0.66414162  0.31885371  0.20125115    -0.14400
F417        F  0.58350072  0.37197716  0.32499321    -0.14400
F418        F  0.53495244  0.31722384  0.28101205    -0.12100
C419        C  0.60034177  0.57709499  0.14139129     0.25900
C420        C  0.62250785  0.57841082  0.10885273    -0.22200
C421        C  0.60924255  0.61335392  0.08520563     0.20800
C422        C  0.57479338  0.64613452  0.09395485     0.25900
C423        C  0.55286071  0.64478026  0.12649513    -0.22100
C424        C  0.56596384  0.60990827  0.15009410     0.20800
F425        F  0.54516021  0.60715904  0.18162427    -0.12100
F426        F  0.61187020  0.54413469  0.16501967    -0.14400
F427        F  0.56404039  0.68012023  0.07091204    -0.14400
F428        F  0.62987025  0.61634669  0.05363125    -0.12100
C429        C  0.87695294  0.62893321  0.01286401     0.25900
C430        C  0.90858284  0.64332314  0.03871062    -0.22200
C431        C  0.90635454  0.62190507  0.07131156     0.20800
C432        C  0.87329384  0.58731369  0.07805317     0.25900
C433        C  0.84129560  0.57330289  0.05248333    -0.22100
C434        C  0.84372388  0.59418846  0.01967587     0.20800
F435        F  0.81311289  0.58208729  0.99443584    -0.12100
F436        F  0.87749411  0.64890648  0.98109955    -0.14400
F437        F  0.87286595  0.56742419  0.10983419    -0.14400
F438        F  0.93605885  0.63444717  0.09700993    -0.12100
C439        C  0.66308050  0.37242950  0.48179896     0.25900
C440        C  0.65065875  0.38078712  0.01647379    -0.22200
C441        C  0.61104649  0.35796993  0.03022283     0.20800
C442        C  0.58434110  0.32803428  0.00961224     0.25900
C443        C  0.59686294  0.31996445  0.47496445    -0.22100
C444        C  0.63661870  0.34225324  0.46132511     0.20800
F445        F  0.65001808  0.33488493  0.42803547    -0.12100
F446        F  0.70043897  0.39401595  0.46736041    -0.14400
F447        F  0.54511845  0.30852116  0.02321291    -0.14400
F448        F  0.59743389  0.36511060  0.06348195    -0.12100
C449        C  0.08069321  0.41308457  0.33272913     0.25900
C450        C  0.11223648  0.42813499  0.30698076    -0.22200
C451        C  0.10655758  0.41116557  0.27306211     0.20800
C452        C  0.07165313  0.37834299  0.26548082     0.25900
C453        C  0.04141961  0.36179106  0.29162173    -0.22100
C454        C  0.04574554  0.38048440  0.32514161     0.20800
F455        F  0.01677106  0.36660755  0.35101076    -0.12100
F456        F  0.08376433  0.42953395  0.36558958    -0.14400
F457        F  0.06801743  0.36238816  0.23251789    -0.14400
F458        F  0.13553999  0.42526164  0.24725865    -0.12100
C459        C  0.05715596  0.12905792  0.21270856     0.25900
C460        C  0.04016170  0.13671722  0.24639726    -0.22200
C461        C  0.05778860  0.10920478  0.27351339     0.20800
C462        C  0.09234772  0.07554475  0.26721044     0.25900
C463        C  0.11044940  0.06882247  0.23367005    -0.22100
C464        C  0.09216859  0.09580820  0.20644661     0.20800
F465        F  0.10836368  0.09046323  0.17364439    -0.12100
F466        F  0.04099642  0.15473735  0.18584516    -0.14400
F467        F  0.10868555  0.05028631  0.29423671    -0.14400
F468        F  0.04158900  0.11474416  0.30631074    -0.12100
C469        C  0.79253622  0.11909663  0.35772055     0.25900
C470        C  0.80308491  0.12172256  0.39321924    -0.22200
C471        C  0.84009504  0.15087042  0.40386419     0.20800
C472        C  0.86572307  0.17669696  0.37972088     0.25900
C473        C  0.85492380  0.17433759  0.34430748    -0.22100
C474        C  0.81822652  0.14491446  0.33357227     0.20800
F475        F  0.80715964  0.14076536  0.29961094    -0.12100
F476        F  0.75784815  0.09086401  0.34610657    -0.14400
F477        F  0.90223163  0.20285390  0.39103566    -0.14400
F478        F  0.85217884  0.15409640  0.43767853    -0.12100
C479        C  0.82227833  0.36164066  0.21128444     0.25900
C480        C  0.84927005  0.32373427  0.19902994    -0.22200
C481        C  0.85060379  0.31487190  0.16322813     0.20800
C482        C  0.82692824  0.34405928  0.14019964     0.25900
C483        C  0.80080722  0.38258466  0.15243542    -0.22100
C484        C  0.79846580  0.39070408  0.18830608     0.20800
F485        F  0.77419214  0.42766574  0.20131710    -0.12100
F486        F  0.81952218  0.37144756  0.24558565    -0.14400
F487        F  0.83027266  0.33477051  0.10584383    -0.14400
F488        F  0.87585506  0.27863913  0.15024195    -0.12100
C489        C  0.08718256  0.42006680  0.09708071     0.25900
C490        C  0.11749998  0.43725151  0.07128310    -0.22200
C491        C  0.11205182  0.42097488  0.03717349     0.20800
C492        C  0.07854715  0.38691261  0.02933407     0.25900
C493        C  0.04935989  0.36848129  0.05538550    -0.22100
C494        C  0.05357379  0.38617489  0.08923312     0.20800
F495        F  0.02578050  0.37013080  0.11511817    -0.12100
F496        F  0.09006855  0.43578317  0.13015055    -0.14400
F497        F  0.07520406  0.37170581  0.99616924    -0.14400
F498        F  0.13994823  0.43706015  0.01136805    -0.12100
C499        C  0.09381048  0.09478153  0.46799865     0.25900
C500        C  0.11298012  0.06890152  0.49547016    -0.22200
C501        C  0.09706565  0.07792641  0.02928778     0.20800
C502        C  0.06371382  0.11275922  0.03557461     0.25900
C503        C  0.04551249  0.13953013  0.00820436    -0.22100
C504        C  0.06041549  0.12959682  0.47430043     0.20800
F505        F  0.04381984  0.15448762  0.44718747    -0.12100
F506        F  0.10772779  0.08695925  0.43489267    -0.14400
F507        F  0.04945741  0.12029252  0.06864292    -0.14400
F508        F  0.11450295  0.05388861  0.05655758    -0.12100
C509        C  0.85631589  0.14133667  0.16165732     0.25900
C510        C  0.81120006  0.12554945  0.15261645    -0.22200
C511        C  0.79221089  0.13964855  0.12078773     0.20800
C512        C  0.81827290  0.16725499  0.09803905     0.25900
C513        C  0.86378680  0.18170848  0.10664143    -0.22100
C514        C  0.88234241  0.16895503  0.13886385     0.20800
F515        F  0.92653367  0.18149142  0.14776737    -0.12100
F516        F  0.87610062  0.12896846  0.19213157    -0.14400
F517        F  0.79876864  0.18001669  0.06756105    -0.14400
F518        F  0.74837174  0.12668428  0.11149065    -0.12100
C519        C  0.80632200  0.33939718  0.41416237     0.25900
C520        C  0.79207711  0.38447863  0.42446608    -0.22200
C521        C  0.80665382  0.40171463  0.45674181     0.20800
C522        C  0.83594769  0.37502317  0.47779982     0.25900
C523        C  0.85141446  0.33042276  0.46707542    -0.22100
C524        C  0.83571196  0.31270973  0.43520079     0.20800
F525        F  0.84863067  0.26947061  0.42432321    -0.12100
F526        F  0.79175720  0.32101840  0.38364678    -0.14400
F527        F  0.85068388  0.39384743  0.00810614    -0.14400
F528        F  0.79427713  0.44531674  0.46736734    -0.12100
O529        O  0.90888615  0.26977839  0.97699335    -0.55500
C530        C  0.01275716  0.17867326  0.51538755     0.77200
O531        O  0.98683315  0.31526005  0.56977310    -0.56600
C532        C  0.88454920  0.30343990  0.98879007     0.77100
C533        C  0.89243909  0.20818785  0.58154439     0.79500
Cd534      Cd  0.95101167  0.25539231  0.53214986     1.37500
O535        O  0.98869600  0.19822723  0.99204974    -0.55500
O536        O  0.88629327  0.20406526  0.54931331    -0.54300
C537        C  0.01556291  0.33043732  0.54748795     0.79500
O538        O  0.92489276  0.23543050  0.59100423    -0.56700
O539        O  0.00787890  0.19487149  0.54557056    -0.55100
O540        O  0.89060011  0.31354482  0.52029567    -0.55100
O541        O  0.01415958  0.31085432  0.51814877    -0.54300
O542        O  0.90990475  0.23406889  0.82775737    -0.55500
C543        C  0.00683864  0.32421451  0.78426980     0.77200
O544        O  0.98088878  0.19268663  0.73028164    -0.56600
C545        C  0.88293243  0.20111824  0.81877011     0.77100
C546        C  0.87857137  0.29607831  0.72316417     0.79500
Cd547      Cd  0.94169776  0.24919939  0.76961091     1.37500
O548        O  0.97779012  0.31000687  0.80671493    -0.55500
O549        O  0.88175513  0.30685765  0.75479272    -0.54300
C550        C  0.00588862  0.17445614  0.75364886     0.79500
O551        O  0.90313666  0.26159197  0.71323138    -0.56700
O552        O  0.00528197  0.30383647  0.75526085    -0.55100
O553        O  0.88178711  0.19185830  0.78677848    -0.55100
O554        O  0.00062627  0.19079511  0.78379421    -0.54300
O555        O  0.74925341  0.44642905  0.63845465    -0.55500
C556        C  0.65919616  0.54374170  0.59965321     0.77200
O557        O  0.78086784  0.51754260  0.53820471    -0.56600
C558        C  0.77669184  0.41446634  0.62806934     0.77100
C559        C  0.67831405  0.41351533  0.53800688     0.79500
Cd560      Cd  0.73022385  0.47680173  0.58089853     1.37500
O561        O  0.67234602  0.51227553  0.62041078    -0.55500
O562        O  0.66652088  0.42291336  0.56875685    -0.54300
C563        C  0.80428047  0.53903353  0.56103543     0.79500
O564        O  0.71479287  0.43372991  0.52684423    -0.56700
O565        O  0.67917939  0.54393708  0.57046100    -0.55100
O566        O  0.78251234  0.41144229  0.59569674    -0.55100
O567        O  0.79385684  0.53033462  0.59210667    -0.54300
O568        O  0.73953792  0.44794600  0.91113881    -0.55500
C569        C  0.64418958  0.54175854  0.86657212     0.77200
O570        O  0.77520353  0.51370542  0.81164699    -0.56600
C571        C  0.76508621  0.41449547  0.90061911     0.77100
C572        C  0.67379454  0.40915491  0.80850723     0.79500
Cd573      Cd  0.71929014  0.47617189  0.85255534     1.37500
O574        O  0.66570542  0.52095036  0.89061114    -0.55500
O575        O  0.66020254  0.41713294  0.83918093    -0.54300
C576        C  0.79545577  0.53799258  0.83458330     0.79500
O577        O  0.70910038  0.43217670  0.79822402    -0.56700
O578        O  0.65639630  0.53105917  0.83611299    -0.55100
O579        O  0.76759479  0.40883049  0.86827263    -0.55100
O580        O  0.78035347  0.53316709  0.86502733    -0.54300
O581        O  0.74810944  0.07235434  0.66592547    -0.55500
C582        C  0.66210758  0.96461272  0.70047966     0.77200
O583        O  0.79522591  0.99103875  0.75928850    -0.56600
C584        C  0.78506141  0.09311940  0.67554091     0.77100
C585        C  0.69185838  0.08680321  0.76954397     0.79500
Cd586      Cd  0.73769135  0.02717571  0.71980010     1.37500
O587        O  0.69170881  0.97841851  0.67830853    -0.55500
O588        O  0.71522276  0.05125948  0.77865023    -0.54300
C589        C  0.81126547  0.96230833  0.73723264     0.79500
O590        O  0.69136378  0.09566378  0.73751935    -0.56700
O591        O  0.66671011  0.98122039  0.73052915    -0.55100
O592        O  0.79910677  0.08386600  0.70570419    -0.55100
O593        O  0.79321487  0.96409671  0.70753466    -0.54300
O594        O  0.74251917  0.06762820  0.91018261    -0.55500
C595        C  0.65110729  0.97352034  0.95227492     0.77200
O596        O  0.79067072  0.99586008  0.50374474    -0.56600
C597        C  0.77694585  0.09294885  0.91875158     0.77100
C598        C  0.68594903  0.09331999  0.51937845     0.79500
Cd599      Cd  0.72962823  0.03346177  0.96791736     1.37500
O600        O  0.66404635  0.00476520  0.93122260    -0.55500
O601        O  0.68071712  0.09959190  0.98729711    -0.54300
C602        C  0.80468854  0.96781206  0.98046055     0.79500
O603        O  0.71336178  0.06054249  0.52786510    -0.56700
O604        O  0.67480177  0.97029286  0.97964010    -0.55100
O605        O  0.78827051  0.09176223  0.95033363    -0.55100
O606        O  0.78398094  0.97045608  0.95172648    -0.54300
O607        O  0.53589304  0.26540193  0.72325348    -0.55500
C608        C  0.44320978  0.17345436  0.67668172     0.77200
O609        O  0.47192752  0.30430651  0.62354256    -0.56600
C610        C  0.56949483  0.29158192  0.71433992     0.77100
C611        C  0.57357856  0.19988803  0.61728910     0.79500
Cd612      Cd  0.50939332  0.24760673  0.66375310     1.37500
O613        O  0.46997468  0.18843611  0.70029652    -0.55500
O614        O  0.56502737  0.18524193  0.64747837    -0.54300
C615        C  0.44599593  0.32323500  0.64629013     0.79500
O616        O  0.55311066  0.23747554  0.60881935    -0.56700
O617        O  0.44755938  0.19263505  0.64749572    -0.55100
O618        O  0.57631142  0.29582760  0.68219096    -0.55100
O619        O  0.45044747  0.30781230  0.67661988    -0.54300
O620        O  0.54804310  0.22564054  0.85198256    -0.55500
C621        C  0.44053761  0.31126332  0.88983811     0.77200
O622        O  0.46729469  0.18594318  0.94722652    -0.56600
C623        C  0.57347270  0.19258381  0.86301477     0.77100
C624        C  0.56715908  0.29090648  0.95243606     0.79500
Cd625      Cd  0.50707321  0.23943820  0.90732341     1.37500
O626        O  0.46747532  0.29330837  0.86728898    -0.55500
O627        O  0.56574070  0.29788196  0.92023598    -0.54300
C628        C  0.44382594  0.16519853  0.92406569     0.79500
O629        O  0.54130922  0.25860262  0.96410222    -0.56700
O630        O  0.44465802  0.29576595  0.92018620    -0.55100
O631        O  0.56842658  0.18195441  0.89452340    -0.55100
O632        O  0.45105861  0.17796543  0.89327070    -0.54300
O633        O  0.21580651  0.55961124  0.65843483    -0.55500
C634        C  0.30586574  0.46443974  0.61540743     0.77200
O635        O  0.18011763  0.49096302  0.55768697    -0.56600
C636        C  0.18730099  0.59111802  0.64928458     0.77100
C637        C  0.27872606  0.59733442  0.55474727     0.79500
Cd638      Cd  0.23246078  0.53105633  0.59952270     1.37500
O639        O  0.28899848  0.49153854  0.63825088    -0.55500
O640        O  0.29311574  0.58862347  0.58491915    -0.54300
C641        C  0.15578742  0.47017751  0.58031853     0.79500
O642        O  0.24225581  0.57566438  0.54533728    -0.56700
O643        O  0.28895434  0.46866054  0.58544304    -0.55100
O644        O  0.18116920  0.59565501  0.61712992    -0.55100
O645        O  0.16671012  0.47827488  0.61135724    -0.54300
O646        O  0.24826802  0.55726253  0.78152056    -0.55500
C647        C  0.15177057  0.45962803  0.81610069     0.77200
O648        O  0.28284126  0.47826104  0.87786549    -0.56600
C649        C  0.28129830  0.58224530  0.79312712     0.77100
C650        C  0.18443419  0.58133454  0.88387546     0.79500
Cd651      Cd  0.22997891  0.51811914  0.83661258     1.39100
O652        O  0.17782580  0.47868365  0.79366152    -0.55500
O653        O  0.18026515  0.58490593  0.85144471    -0.54300
C654        C  0.30119724  0.45119315  0.85566706     0.79500
O655        O  0.21057660  0.54866797  0.89453507    -0.56700
O656        O  0.16189542  0.46825700  0.84720387    -0.55100
O657        O  0.28992324  0.57794664  0.82498883    -0.55100
O658        O  0.28642944  0.45536935  0.82510645    -0.54300
O659        O  0.40747225  0.76298857  0.60423211    -0.55500
C660        C  0.51785847  0.68052001  0.63641299     0.77200
O661        O  0.49103834  0.81115740  0.69490355    -0.56600
C662        C  0.38598399  0.79914639  0.61476220     0.77100
C663        C  0.39425870  0.69981671  0.70382848     0.79500
Cd664      Cd  0.45315528  0.75187455  0.65732772     1.37500
O665        O  0.49475857  0.70337365  0.61423622    -0.55500
O666        O  0.39357143  0.69413586  0.67141789    -0.54300
C667        C  0.52026215  0.82446566  0.67221737     0.79500
O668        O  0.42206550  0.73081681  0.71509000    -0.56700
O669        O  0.50992761  0.69025204  0.66778997    -0.55100
O670        O  0.39528837  0.81260820  0.64513657    -0.55100
O671        O  0.51752622  0.80458456  0.64308267    -0.54300
O672        O  0.40391274  0.77405747  0.85439441    -0.55500
C673        C  0.50693296  0.68747618  0.89367286     0.77200
O674        O  0.47907350  0.82131683  0.94813703    -0.56600
C675        C  0.37927533  0.80882579  0.86373638     0.77100
C676        C  0.38251815  0.71525949  0.96025981     0.79500
Cd677      Cd  0.44199372  0.76219610  0.91056247     1.37500
O678        O  0.47553802  0.69954278  0.87243324    -0.55500
O679        O  0.37564091  0.71221566  0.92808731    -0.54300
C680        C  0.50517749  0.83838558  0.92483972     0.79500
O681        O  0.41552348  0.74186378  0.96962851    -0.56700
O682        O  0.50770508  0.71006573  0.92174084    -0.55100
O683        O  0.38325709  0.82144469  0.89498361    -0.55100
O684        O  0.50116752  0.82087251  0.89493993    -0.54300
O685        O  0.21404908  0.93023070  0.65754613    -0.55500
C686        C  0.30084183  0.03255560  0.69986988     0.77200
O687        O  0.16216762  0.00597605  0.74993006    -0.56600
C688        C  0.17864416  0.90642312  0.66647766     0.77100
C689        C  0.26730866  0.91067766  0.76488729     0.79500
Cd690      Cd  0.22404630  0.96964774  0.71398905     1.37500
O691        O  0.28441336  0.00661931  0.67621577    -0.55500
O692        O  0.27438708  0.90476810  0.73286427    -0.54300
C693        C  0.14868860  0.03465147  0.72717807     0.79500
O694        O  0.23848097  0.94245672  0.77324561    -0.56700
O695        O  0.28200335  0.02849045  0.72925930    -0.55100
O696        O  0.16540539  0.91120328  0.69752616    -0.55100
O697        O  0.17002127  0.03277414  0.69852260    -0.54300
O698        O  0.21291361  0.92577895  0.92100291    -0.55500
C699        C  0.29919835  0.03082620  0.95616471     0.77200
O700        O  0.16551704  0.00695945  0.51220511    -0.56600
C701        C  0.17731210  0.90366536  0.93172474     0.77100
C702        C  0.27131462  0.90925593  0.52312368     0.79500
Cd703      Cd  0.22471713  0.96893273  0.97497728     1.37500
O704        O  0.27987918  0.00522779  0.93355805    -0.55500
O705        O  0.27376737  0.90265893  0.99084064    -0.54300
C706        C  0.15036686  0.03395832  0.98888105     0.79500
O707        O  0.24614888  0.94318539  0.53322065    -0.56700
O708        O  0.28407825  0.02671789  0.98669566    -0.55100
O709        O  0.16459650  0.91162899  0.96255294    -0.55100
O710        O  0.16945204  0.02999807  0.95949782    -0.54300
O711        O  0.94796025  0.69903702  0.50255983    -0.55500
C712        C  0.07199961  0.79583096  0.56876595     0.77200
O713        O  0.05528251  0.73757244  0.96455120    -0.56600
C714        C  0.94363747  0.68035738  0.53195153     0.77100
C715        C  0.94812661  0.82778533  0.50408778     0.79500
Cd716      Cd  0.01150599  0.75200834  0.51898184     1.37500
O717        O  0.04215368  0.76545792  0.57774444    -0.55500
O718        O  0.95360260  0.81104394  0.53393752    -0.54300
C719        C  0.07508390  0.70049777  0.97495522     0.79500
O720        O  0.97333693  0.81004387  0.98032894    -0.56700
O721        O  0.07462689  0.80437051  0.53675584    -0.55100
O722        O  0.97099772  0.69508018  0.55527253    -0.55100
O723        O  0.06622338  0.68868208  0.50573430    -0.54300
O724        O  0.03422658  0.76414344  0.84905000    -0.55500
C725        C  0.94090041  0.67317775  0.80477347     0.77200
O726        O  0.97230316  0.79896204  0.74862719    -0.56600
C727        C  0.06892181  0.78843780  0.83952087     0.77100
C728        C  0.07308714  0.69738923  0.74529520     0.79500
Cd729      Cd  0.00850746  0.74490809  0.79025657     1.37500
O730        O  0.96726772  0.68962611  0.82806618    -0.55500
O731        O  0.06385348  0.68250939  0.77531685    -0.54300
C732        C  0.94945349  0.82189699  0.77111217     0.79500
O733        O  0.05275412  0.73485899  0.73646281    -0.56700
O734        O  0.94656821  0.68963010  0.77479370    -0.55100
O735        O  0.07648727  0.79064226  0.80736918    -0.55100
O736        O  0.95498320  0.80963013  0.80212026    -0.54300
C737        C  0.16991160  0.85651513  0.87732925     0.25900
C738        C  0.15116842  0.87103885  0.90930019    -0.22200
C739        C  0.10629513  0.85543405  0.91907296     0.20800
C740        C  0.08002527  0.82757548  0.89674919     0.25900
C741        C  0.09823089  0.81432738  0.86434264    -0.22100
C742        C  0.14372340  0.82838734  0.85511512     0.20800
F743        F  0.16295260  0.81505358  0.82447446    -0.12100
F744        F  0.21352632  0.86965884  0.86736138    -0.14400
F745        F  0.03603464  0.81511449  0.90638677    -0.14400
F746        F  0.08686791  0.86847049  0.94972093    -0.12100
C747        C  0.16508971  0.87510804  0.60655479     0.25900
C748        C  0.15335442  0.87547077  0.64190837    -0.22200
C749        C  0.11572797  0.84751317  0.65321052     0.20800
C750        C  0.08971767  0.82113793  0.62957991     0.25900
C751        C  0.10138229  0.82111690  0.59421215    -0.22100
C752        C  0.13983214  0.84789745  0.58309435     0.20800
F753        F  0.15269784  0.84855824  0.54928915    -0.12100
F754        F  0.20006814  0.90234679  0.59426474    -0.14400
F755        F  0.05175764  0.79736202  0.64121059    -0.14400
F756        F  0.10314017  0.84643439  0.68706443    -0.12100
C757        C  0.31061222  0.83859775  0.78291279     0.25900
C758        C  0.29271301  0.88308819  0.79109250    -0.22200
C759        C  0.30173973  0.90221620  0.82393737     0.20800
C760        C  0.32920432  0.87791345  0.84776312     0.25900
C761        C  0.34805398  0.83373740  0.83931294    -0.22100
C762        C  0.33774517  0.81415029  0.80679844     0.20800
F763        F  0.35384504  0.77114920  0.79797882    -0.12100
F764        F  0.30171813  0.81851391  0.75178377    -0.14400
F765        F  0.33846819  0.89848808  0.87865394    -0.14400
F766        F  0.28563708  0.94541367  0.83256161    -0.12100
C767        C  0.30651127  0.89501618  0.58133325     0.25900
C768        C  0.29736096  0.87940264  0.54752023    -0.22200
C769        C  0.31510583  0.83577520  0.53678447     0.20800
C770        C  0.34243460  0.80897271  0.55904837     0.25900
C771        C  0.35296100  0.82522324  0.59249013    -0.22100
C772        C  0.33362710  0.86806142  0.60366600     0.20800
F773        F  0.34201195  0.88484491  0.63590718    -0.12100
F774        F  0.29098594  0.93738185  0.59245217    -0.14400
F775        F  0.35915803  0.76739202  0.54751770    -0.14400
F776        F  0.30655234  0.81906369  0.00452567    -0.12100
C777        C  0.14076328  0.65571863  0.89588825     0.25900
C778        C  0.15930602  0.61321204  0.90785436    -0.22200
C779        C  0.15195656  0.60074586  0.94257862     0.20800
C780        C  0.12582389  0.62969998  0.96460936     0.25900
C781        C  0.10595355  0.67161354  0.95234638    -0.22100
C782        C  0.11427074  0.68439898  0.91780627     0.20800
F783        F  0.09604072  0.72430141  0.90485595    -0.12100
F784        F  0.14805992  0.66967176  0.86281132    -0.14400
F785        F  0.11923862  0.61591011  0.49779272    -0.14400
F786        F  0.16861166  0.55969212  0.95504828    -0.12100
C787        C  0.37130944  0.67138912  0.76296814     0.25900
C788        C  0.36437006  0.67118979  0.72698607    -0.22200
C789        C  0.32929941  0.64214265  0.71313259     0.20800
C790        C  0.30205719  0.61395376  0.73463313     0.25900
C791        C  0.30891995  0.61402951  0.77061884    -0.22100
C792        C  0.34363861  0.64351302  0.78456348     0.20800
F793        F  0.35144277  0.64511537  0.81912642    -0.12100
F794        F  0.40590072  0.69742603  0.77729952    -0.14400
F795        F  0.26960408  0.58576985  0.71990718    -0.14400
F796        F  0.32146168  0.64036654  0.67856970    -0.12100
C797        C  0.14011818  0.66225914  0.66442780     0.25900
C798        C  0.16133658  0.62015645  0.67466304    -0.22200
C799        C  0.15503366  0.60471803  0.70883329     0.20800
C800        C  0.12738066  0.63031743  0.73204967     0.25900
C801        C  0.10512241  0.67185771  0.72155089    -0.22100
C802        C  0.11236424  0.68774242  0.68758070     0.20800
F803        F  0.09173484  0.72750748  0.67632127    -0.12100
F804        F  0.14575208  0.67873684  0.63182594    -0.14400
F805        F  0.12154001  0.61357024  0.76454575    -0.14400
F806        F  0.17370959  0.56358625  0.71945118    -0.12100
C807        C  0.28371032  0.64486782  0.00024016     0.25900
C808        C  0.30386584  0.63019609  0.53155168    -0.22200
C809        C  0.34921090  0.64590055  0.53987620     0.20800
C810        C  0.37426185  0.67422333  0.51699347     0.25900
C811        C  0.35454475  0.68791389  0.98536694    -0.22100
C812        C  0.30889382  0.67312606  0.97730819     0.20800
F813        F  0.28848505  0.68604014  0.94719463    -0.12100
F814        F  0.23955496  0.63190408  0.99167468    -0.14400
F815        F  0.41858807  0.68692960  0.52536987    -0.14400
F816        F  0.37016324  0.63276145  0.56973132    -0.12100
C817        C  0.38143834  0.37224910  0.90762045     0.25900
C818        C  0.40583162  0.34804760  0.88129243    -0.22200
C819        C  0.39618470  0.35893571  0.84665104     0.20800
C820        C  0.36241612  0.39242817  0.83844943     0.25900
C821        C  0.33771679  0.41638434  0.86468655    -0.22100
C822        C  0.34797678  0.40619601  0.89940396     0.20800
F823        F  0.32518366  0.42849934  0.92556225    -0.12100
F824        F  0.38988972  0.36328030  0.94145540    -0.14400
F825        F  0.35409875  0.40133662  0.80460809    -0.14400
F826        F  0.41889832  0.33667580  0.82045152    -0.12100
C827        C  0.35613312  0.06665682  0.91425210     0.25900
C828        C  0.33719238  0.06410190  0.94781374    -0.22200
C829        C  0.35469691  0.09421223  0.97360910     0.20800
C830        C  0.39013365  0.12607387  0.96605868     0.25900
C831        C  0.40872107  0.12902033  0.93247566    -0.22100
C832        C  0.39154062  0.09877637  0.90667408     0.20800
F833        F  0.40905760  0.10007855  0.87403203    -0.12100
F834        F  0.34034273  0.03832863  0.88860660    -0.14400
F835        F  0.40504015  0.15515086  0.99153356    -0.14400
F836        F  0.33693732  0.09375444  0.00620182    -0.12100
C837        C  0.39773668  0.36896935  0.60387489     0.25900
C838        C  0.41170760  0.36073051  0.63813271    -0.22200
C839        C  0.39121562  0.38762593  0.66480849     0.20800
C840        C  0.35727305  0.42146872  0.65745616     0.25900
C841        C  0.34294447  0.42944986  0.62320804    -0.22100
C842        C  0.36387992  0.40292068  0.59648779     0.20800
F843        F  0.35146698  0.40945414  0.56303491    -0.12100
F844        F  0.41582991  0.34328365  0.57742975    -0.14400
F845        F  0.33798978  0.44586200  0.68411909    -0.14400
F846        F  0.40396388  0.38131260  0.69822288    -0.12100
C847        C  0.35465383  0.07699867  0.66015915     0.25900
C848        C  0.33924519  0.06657104  0.69383285    -0.22200
C849        C  0.35973105  0.09048654  0.72189967     0.20800
C850        C  0.39393773  0.12458064  0.71638423     0.25900
C851        C  0.40840257  0.13588545  0.68268474    -0.22100
C852        C  0.38850020  0.11153828  0.65463491     0.20800
F853        F  0.40177325  0.12104517  0.62169023    -0.12100
F854        F  0.33644774  0.05445384  0.63237266    -0.14400
F855        F  0.41179991  0.14748929  0.74413865    -0.14400
F856        F  0.34653601  0.08124247  0.75490622    -0.12100
C857        C  0.86452756  0.91025849  0.95835771     0.25900
C858        C  0.84284248  0.93346145  0.98639074    -0.22200
C859        C  0.85732910  0.92267285  0.52012079     0.20800
C860        C  0.89197608  0.88899692  0.52573350     0.25900
C861        C  0.91330512  0.86536481  0.49773216    -0.22100
C862        C  0.89938442  0.87668961  0.96396214     0.20800
F863        F  0.91851553  0.85442483  0.93625263    -0.12100
F864        F  0.85204545  0.91992030  0.92534287    -0.14400
F865        F  0.90426730  0.87937039  0.55880477    -0.14400
F866        F  0.83714414  0.94376566  0.54792960    -0.12100
C867        C  0.59346098  0.91327318  0.97216772     0.25900
C868        C  0.61103662  0.94182621  0.94552453    -0.22200
C869        C  0.59086814  0.93843320  0.91246707     0.20800
C870        C  0.55585573  0.90537222  0.90581326     0.25900
C871        C  0.53955078  0.87579655  0.93224799    -0.22100
C872        C  0.55805542  0.88084838  0.96562937     0.20800
F873        F  0.54332220  0.85300534  0.99180835    -0.12100
F874        F  0.61074648  0.91629280  0.00472392    -0.14400
F875        F  0.53793223  0.90233644  0.87344770    -0.14400
F876        F  0.60564270  0.96630065  0.88630753    -0.12100
C877        C  0.64195576  0.16594809  0.53635315     0.25900
C878        C  0.66021253  0.12195829  0.54531420    -0.22200
C879        C  0.65129124  0.10454725  0.57865377     0.20800
C880        C  0.62397840  0.13013587  0.60222184     0.25900
C881        C  0.60498388  0.17390104  0.59306573    -0.22100
C882        C  0.61498488  0.19169739  0.55996826     0.20800
F883        F  0.59829928  0.23394745  0.55011891    -0.12100
F884        F  0.65003549  0.18420542  0.00456161    -0.14400
F885        F  0.61526673  0.11127433  0.63372361    -0.14400
F886        F  0.66744658  0.06183520  0.58811939    -0.12100
C887        C  0.89913923  0.86324255  0.72814460     0.25900
C888        C  0.91689836  0.86003016  0.76185025    -0.22200
C889        C  0.90116592  0.89201291  0.78710934     0.20800
C890        C  0.86746028  0.92568664  0.77905086     0.25900
C891        C  0.84864164  0.92811086  0.74553613    -0.22100
C892        C  0.86531649  0.89674120  0.72008844     0.20800
F893        F  0.84831952  0.89761584  0.68739420    -0.12100
F894        F  0.91312021  0.83278845  0.70314278    -0.14400
F895        F  0.85283912  0.95538480  0.80433766    -0.14400
F896        F  0.91826586  0.89073138  0.81977990    -0.12100
C897        C  0.55337129  0.88898249  0.70903025     0.25900
C898        C  0.55597752  0.86101748  0.67911382    -0.22200
C899        C  0.59342893  0.86810441  0.65584844     0.20800
C900        C  0.62734791  0.90226641  0.66237847     0.25900
C901        C  0.62478122  0.93015991  0.69235935    -0.22100
C902        C  0.58728582  0.92310365  0.71556203     0.20800
F903        F  0.58319540  0.94929828  0.74474381    -0.12100
F904        F  0.51786677  0.88354989  0.73207896    -0.14400
F905        F  0.66352839  0.90687245  0.63979972    -0.14400
F906        F  0.59813507  0.84114324  0.62708251    -0.12100
C907        C  0.62125879  0.12145500  0.84871469     0.25900
C908        C  0.60660700  0.16698219  0.84021693    -0.22200
C909        C  0.62272042  0.18699592  0.80923240     0.20800
C910        C  0.65170256  0.16154618  0.78675759     0.25900
C911        C  0.66505289  0.11546042  0.79473798    -0.22100
C912        C  0.64999847  0.09594629  0.82618222     0.20800
F913        F  0.66119033  0.05125382  0.83449352    -0.12100
F914        F  0.60607833  0.10060943  0.87814147    -0.14400
F915        F  0.66663200  0.18208389  0.75714559    -0.14400
F916        F  0.61056747  0.23131394  0.80065487    -0.12100
C917        C  0.57394977  0.58911846  0.84864126     0.25900
C918        C  0.60772397  0.57758680  0.87365876    -0.22200
C919        C  0.60764258  0.60208223  0.90519593     0.20800
C920        C  0.57496431  0.63749484  0.91155672     0.25900
C921        C  0.54114788  0.64930523  0.88658331    -0.22100
C922        C  0.54089697  0.62445566  0.85507459     0.20800
F923        F  0.50891523  0.63441626  0.83030515    -0.12100
F924        F  0.57257749  0.56594994  0.81798018    -0.14400
F925        F  0.57706643  0.66055786  0.94223690    -0.14400
F926        F  0.64034324  0.59295881  0.92962863    -0.12100
C927        C  0.85961657  0.59201193  0.85362029     0.25900
C928        C  0.83418366  0.57080331  0.82664022    -0.22200
C929        C  0.84531202  0.58247466  0.79230664     0.20800
C930        C  0.88007070  0.61549944  0.78515862     0.25900
C931        C  0.90502590  0.63713977  0.81219147    -0.22100
C932        C  0.89460343  0.62465095  0.84647585     0.20800
F933        F  0.91756947  0.64467097  0.87337378    -0.12100
F934        F  0.85070760  0.58139720  0.88716282    -0.14400
F935        F  0.88894061  0.62640185  0.75166504    -0.14400
F936        F  0.82198981  0.56267264  0.76550597    -0.12100
C937        C  0.64377672  0.33212202  0.73150304     0.25900
C938        C  0.59816610  0.31739950  0.73989100    -0.22200
C939        C  0.57899415  0.33035891  0.77207604     0.20800
C940        C  0.60409642  0.35899687  0.79475541     0.25900
C941        C  0.64895083  0.37550704  0.78573778    -0.22100
C942        C  0.66891467  0.36079745  0.75417556     0.20800
F943        F  0.71274620  0.37427901  0.74507131    -0.12100
F944        F  0.66414234  0.31883027  0.70125420    -0.14400
F945        F  0.58349486  0.37197341  0.82498930    -0.14400
F946        F  0.53494375  0.31722399  0.78100675    -0.12100
C947        C  0.60033313  0.57709020  0.64139389     0.25900
C948        C  0.62250639  0.57841046  0.60885814    -0.22200
C949        C  0.60924841  0.61335869  0.58521285     0.20800
C950        C  0.57479968  0.64613999  0.59396127     0.25900
C951        C  0.55285971  0.64478135  0.62649858    -0.22100
C952        C  0.56595530  0.60990422  0.65009587     0.20800
F953        F  0.54514413  0.60715072  0.68162308    -0.12100
F954        F  0.61185392  0.54412441  0.66502018    -0.14400
F955        F  0.56405441  0.68013087  0.57092062    -0.14400
F956        F  0.62988293  0.61635582  0.55364117    -0.12100
C957        C  0.87695456  0.62892521  0.51286200     0.25900
C958        C  0.90858369  0.64331644  0.53870871    -0.22200
C959        C  0.90635451  0.62190008  0.57131020     0.20800
C960        C  0.87329306  0.58730991  0.57805252     0.25900
C961        C  0.84129441  0.57329881  0.55248308    -0.22100
C962        C  0.84372401  0.59418215  0.51967477     0.20800
F963        F  0.81311333  0.58208017  0.49443475    -0.12100
F964        F  0.87749802  0.64889557  0.48109652    -0.14400
F965        F  0.87286467  0.56742217  0.60983416    -0.14400
F966        F  0.93605875  0.63444275  0.59700843    -0.12100
C967        C  0.66308760  0.37241759  0.98179892     0.25900
C968        C  0.65065859  0.38078750  0.51647654    -0.22200
C969        C  0.61105244  0.35796118  0.53022706     0.20800
C970        C  0.58434620  0.32802814  0.50961503     0.25900
C971        C  0.59686446  0.31995965  0.97496422    -0.22100
C972        C  0.63662609  0.34223934  0.96132638     0.20800
F973        F  0.65003197  0.33485989  0.92803941    -0.12100
F974        F  0.70045315  0.39399366  0.96736207    -0.14400
F975        F  0.54512891  0.30850640  0.52321747    -0.14400
F976        F  0.59744721  0.36508991  0.56348911    -0.12100
C977        C  0.08069994  0.41308890  0.83273113     0.25900
C978        C  0.11224634  0.42813511  0.80698356    -0.22200
C979        C  0.10657017  0.41116180  0.77306563     0.20800
C980        C  0.07166468  0.37834009  0.76548453     0.25900
C981        C  0.04142739  0.36179291  0.79162472    -0.22100
C982        C  0.04575113  0.38048980  0.82514375     0.20800
F983        F  0.01677307  0.36661788  0.85101212    -0.12100
F984        F  0.08376896  0.42954141  0.86559088    -0.14400
F985        F  0.06803190  0.36238128  0.73252243    -0.14400
F986        F  0.13555587  0.42525340  0.74726287    -0.12100
C987        C  0.05716033  0.12906194  0.71271106     0.25900
C988        C  0.04016569  0.13671966  0.74639979    -0.22200
C989        C  0.05779202  0.10920598  0.77351536     0.20800
C990        C  0.09235131  0.07554629  0.76721190     0.25900
C991        C  0.11045336  0.06882551  0.73367142    -0.22100
C992        C  0.09217307  0.09581265  0.70644859     0.20800
F993        F  0.10836905  0.09046985  0.67364641    -0.12100
F994        F  0.04100110  0.15474261  0.68584821    -0.14400
F995        F  0.10868843  0.05028630  0.79423761    -0.14400
F996        F  0.04159126  0.11474347  0.80631258    -0.12100
C997        C  0.79254295  0.11909197  0.85772157     0.25900
C998        C  0.80309145  0.12171652  0.89322043    -0.22200
C999        C  0.84010440  0.15086052  0.90386562     0.20800
C1000       C  0.86573372  0.17668674  0.87972284     0.25900
C1001       C  0.85493296  0.17433078  0.84430949    -0.22100
C1002       C  0.81823467  0.14490932  0.83357377     0.20800
F1003       F  0.80716759  0.14076176  0.79961233    -0.12100
F1004       F  0.75785318  0.09086188  0.84610718    -0.14400
F1005       F  0.90224411  0.20284077  0.89103799    -0.14400
F1006       F  0.85218945  0.15408360  0.93767989    -0.12100
C1007       C  0.82227812  0.36163998  0.71128965     0.25900
C1008       C  0.84927354  0.32373638  0.69903466    -0.22200
C1009       C  0.85061068  0.31487703  0.66323252     0.20800
C1010       C  0.82693504  0.34406465  0.64020427     0.25900
C1011       C  0.80080993  0.38258708  0.65244054    -0.22100
C1012       C  0.79846529  0.39070358  0.68831146     0.20800
F1013       F  0.77418755  0.42766227  0.70132305    -0.12100
F1014       F  0.81951823  0.37144358  0.74559119    -0.14400
F1015       F  0.83028350  0.33477915  0.60584821    -0.14400
F1016       F  0.87586528  0.27864685  0.65024573    -0.12100
C1017       C  0.08717182  0.42007494  0.59707755     0.25900
C1018       C  0.11749206  0.43725746  0.57128088    -0.22200
C1019       C  0.11204591  0.42097987  0.53717140     0.20800
C1020       C  0.07854158  0.38691758  0.52933133     0.25900
C1021       C  0.04935289  0.36848686  0.55538224    -0.22100
C1022       C  0.05356356  0.38618280  0.58922936     0.20800
F1023       F  0.02576732  0.37014099  0.61511354    -0.12100
F1024       F  0.09005488  0.43579336  0.63014697    -0.14400
F1025       F  0.07520073  0.37170967  0.49616669    -0.14400
F1026       F  0.13994427  0.43706394  0.51136664    -0.12100
C1027       C  0.09381304  0.09477996  0.96800278     0.25900
C1028       C  0.11298187  0.06889874  0.99547408    -0.22200
C1029       C  0.09706410  0.07792994  0.52928391     0.20800
C1030       C  0.06371187  0.11276241  0.53557032     0.25900
C1031       C  0.04551007  0.13953257  0.50819997    -0.22100
C1032       C  0.06041847  0.12959536  0.97430493     0.20800
F1033       F  0.04382372  0.15448733  0.94719220    -0.12100
F1034       F  0.10773049  0.08695843  0.93489680    -0.14400
F1035       F  0.04945566  0.12029620  0.56863866    -0.14400
F1036       F  0.11450207  0.05389332  0.55655399    -0.12100
C1037       C  0.85631231  0.14134052  0.66165386     0.25900
C1038       C  0.81119847  0.12554860  0.65261179    -0.22200
C1039       C  0.79221101  0.13964285  0.62078129     0.20800
C1040       C  0.81827272  0.16724909  0.59803227     0.25900
C1041       C  0.86378452  0.18170755  0.60663617    -0.22100
C1042       C  0.88233841  0.16895880  0.63886011     0.20800
F1043       F  0.92652788  0.18149975  0.64776499    -0.12100
F1044       F  0.87609541  0.12897750  0.69212983    -0.14400
F1045       F  0.79877022  0.18000584  0.56755250    -0.14400
F1046       F  0.74837385  0.12667383  0.61148267    -0.12100
C1047       C  0.80632593  0.33938563  0.91415922     0.25900
C1048       C  0.79208059  0.38446773  0.92446096    -0.22200
C1049       C  0.80665791  0.40170675  0.95673563     0.20800
C1050       C  0.83595192  0.37501732  0.97779490     0.25900
C1051       C  0.85141884  0.33041600  0.96707290    -0.22100
C1052       C  0.83571629  0.31270002  0.93519896     0.20800
F1053       F  0.84863521  0.26945999  0.92432349    -0.12100
F1054       F  0.79176068  0.32100424  0.88364456    -0.14400
F1055       F  0.85068018  0.39385042  0.50811187    -0.14400
F1056       F  0.79428128  0.44530982  0.96735888    -0.12100
loop_ 
_geom_bond_atom_site_label_1 
_geom_bond_atom_site_label_2 
_geom_bond_distance 
_geom_bond_site_symmetry_2 
_ccdc_geom_bond_type 
O1            C4   1.269       .  A
O1         Cd534   2.491       .  S
C2           O11   1.262       .  A
C2          O535   1.269   1_454  A
C2          C503   1.483       .  S
O3            C9   1.267   1_655  A
O3           Cd6   2.470       .  S
C4          O540   1.265       .  A
C4          C523   1.486       .  S
C5           O10   1.267       .  A
C5            O8   1.266       .  A
C5          C513   1.480       .  S
Cd6          O13   2.465   1_655  S
Cd6          O12   2.442       .  S
Cd6          O11   2.432   1_655  S
Cd6          O10   2.464       .  S
Cd6           O8   2.455       .  S
Cd6         O529   2.491   1_554  S
Cd6         O535   2.491   1_554  S
O7          C530   1.269   1_655  A
O7         Cd534   2.491       .  S
C9           O13   1.265       .  A
C9          C493   1.488       .  S
O12         C532   1.265   1_554  A
O14          C17   1.267       .  A
O14         Cd19   2.464       .  S
C15          O24   1.264       .  A
C15          O20   1.268   1_455  A
C15         C453   1.489       .  S
O16          C22   1.268   1_655  A
O16         Cd19   2.479       .  S
C17          O25   1.266       .  A
C17         C473   1.486       .  S
C18          O23   1.267       .  A
C18          O21   1.265       .  A
C18         C480   1.487       .  S
Cd19         O26   2.436   1_655  S
Cd19         O25   2.464       .  S
Cd19         O24   2.462   1_655  S
Cd19         O20   2.480       .  S
Cd19         O23   2.475       .  S
Cd19         O21   2.447       .  S
C22          O26   1.264       .  A
C22         C460   1.482       .  S
O27          C30   1.267       .  A
O27         Cd32   2.458       .  S
C28          O37   1.264       .  A
C28          O33   1.267       .  A
C28         C420   1.483       .  S
O29          C35   1.268       .  A
O29         Cd32   2.487       .  S
C30          O38   1.266       .  A
C30         C483   1.486       .  S
C31          O36   1.268       .  A
C31          O34   1.264       .  A
C31         C440   1.482       .  S
Cd32         O39   2.419       .  S
Cd32         O38   2.463       .  S
Cd32         O37   2.446       .  S
Cd32         O33   2.463       .  S
Cd32         O36   2.466       .  S
Cd32         O34   2.433       .  S
C35          O39   1.264       .  A
C35         C433   1.481       .  S
O40          C43   1.268       .  A
O40         Cd45   2.481       .  S
C41          O50   1.265       .  A
C41          O46   1.267       .  A
C41         C390   1.484       .  S
O42          C48   1.267       .  A
O42         Cd45   2.493       .  S
C43          O51   1.264       .  A
C43         C520   1.482       .  S
C44          O49   1.269       .  A
C44          O47   1.268       .  A
C44         C413   1.486       .  S
Cd45         O52   2.439       .  S
Cd45         O51   2.449       .  S
Cd45         O50   2.472       .  S
Cd45         O46   2.473       .  S
Cd45         O49   2.465       .  S
Cd45         O47   2.446       .  S
C48          O52   1.262       .  A
C48         C400   1.484       .  S
O53          C56   1.269       .  A
O53         Cd58   2.476       .  S
C54          O63   1.262       .  A
C54          O59   1.267       .  A
C54         C373   1.487       .  S
O55          C61   1.267       .  A
O55         Cd58   2.477   1_565  S
C56          O64   1.265       .  A
C56         C510   1.487       .  S
C57          O62   1.267       .  A
C57          O60   1.268       .  A
C57         C383   1.482       .  S
Cd58         O65   2.445   1_545  S
Cd58         O64   2.453       .  S
Cd58         O63   2.454   1_545  S
Cd58         O59   2.501   1_545  S
Cd58         O62   2.457       .  S
Cd58         O60   2.460       .  S
C61          O65   1.263       .  A
C61         C363   1.484       .  S
O66          C69   1.267       .  A
O66         Cd71   2.470       .  S
C67          O76   1.263       .  A
C67          O72   1.267   1_565  A
C67         C340   1.485       .  S
O68         C602   1.268   1_554  A
O68        Cd599   2.480   1_564  S
C69          O77   1.267       .  A
C69         C470   1.488       .  S
C70          O75   1.266       .  A
C70         O601   1.265   1_554  A
C70         C350   1.485       .  S
Cd71         O78   2.455   1_545  S
Cd71         O77   2.462       .  S
Cd71         O76   2.437   1_545  S
Cd71         O72   2.494       .  S
Cd71         O73   2.463       .  S
Cd71        O596   2.480   1_545  S
Cd71        O603   2.485       .  S
O73         C598   1.265       .  A
C74          O78   1.264       .  A
C74         O596   1.268       .  A
C74         C330   1.486       .  S
O75        Cd599   2.485   1_554  S
O79          C82   1.266       .  A
O79         Cd84   2.479       .  S
C80          O89   1.264       .  A
C80          O85   1.268       .  A
C80         C323   1.484       .  S
O81          C87   1.268       .  A
O81         Cd84   2.496       .  S
C82          O90   1.265       .  A
C82         C410   1.482       .  S
C83          O88   1.268       .  A
C83          O86   1.266       .  A
C83         C353   1.491       .  S
Cd84         O91   2.455       .  S
Cd84         O90   2.466       .  S
Cd84         O89   2.450       .  S
Cd84         O85   2.480       .  S
Cd84         O88   2.478       .  S
Cd84         O86   2.466       .  S
C87          O91   1.263       .  A
C87         C310   1.487       .  S
O92          C95   1.268       .  A
O92         Cd97   2.467       .  S
C93         O102   1.263       .  A
C93          O98   1.268       .  A
C93         C290   1.484       .  S
O94         C100   1.268       .  A
O94         Cd97   2.456       .  S
C95         O103   1.266       .  A
C95         C380   1.482       .  S
C96         O101   1.268       .  A
C96          O99   1.264       .  A
C96         C443   1.475       .  S
Cd97        O104   2.441       .  S
Cd97        O103   2.449       .  S
Cd97        O102   2.450       .  S
Cd97         O98   2.467       .  S
Cd97        O101   2.469       .  S
Cd97         O99   2.422       .  S
C100        O104   1.265       .  A
C100        C303   1.479       .  S
O105        C108   1.267       .  A
O105       Cd110   2.464       .  S
C106        O115   1.265       .  A
C106        O111   1.267       .  A
C106        C313   1.489       .  S
O107        C113   1.267       .  A
O107       Cd110   2.487       .  S
C108        O116   1.265       .  A
C108        C270   1.480       .  S
C109        O114   1.267       .  A
C109        O112   1.265       .  A
C109        C280   1.487       .  S
Cd110       O117   2.455       .  S
Cd110       O116   2.450       .  S
Cd110       O115   2.463       .  S
Cd110       O111   2.483       .  S
Cd110       O114   2.475       .  S
Cd110       O112   2.459       .  S
C113        O117   1.263       .  A
C113        C490   1.487       .  S
O118        C121   1.267       .  A
O118       Cd123   2.468       .  S
C119        O128   1.263       .  A
C119        O124   1.267       .  A
C119        C450   1.489       .  S
O120        C126   1.266       .  A
O120       Cd123   2.482       .  S
C121        O129   1.265       .  A
C121        C263   1.488       .  S
C122        O127   1.267       .  A
C122        O125   1.266       .  A
C122        C250   1.481       .  S
Cd123       O130   2.450       .  S
Cd123       O129   2.465       .  S
Cd123       O128   2.449       .  S
Cd123       O124   2.504       .  S
Cd123       O127   2.464       .  S
Cd123       O125   2.444       .  S
C126        O130   1.264       .  A
C126        C293   1.485       .  S
O131        C134   1.267       .  A
O131       Cd136   2.461       .  S
C132        O141   1.265       .  A
C132        O137   1.268       .  A
C132        C423   1.478       .  S
O133        C139   1.269       .  A
O133       Cd136   2.483       .  S
C134        O142   1.265       .  A
C134        C243   1.483       .  S
C135        O140   1.269       .  A
C135        O138   1.265       .  A
C135        C260   1.485       .  S
Cd136       O143   2.443       .  S
Cd136       O142   2.445       .  S
Cd136       O141   2.430       .  S
Cd136       O137   2.466       .  S
Cd136       O140   2.480       .  S
Cd136       O138   2.436       .  S
C139        O143   1.264       .  A
C139        C370   1.487       .  S
O144        C147   1.268       .  A
O144       Cd149   2.460       .  S
C145        O154   1.262       .  A
C145        O150   1.268       .  A
C145        C393   1.488       .  S
O146        C152   1.268       .  A
O146       Cd149   2.469       .  S
C147        O155   1.267       .  A
C147        C233   1.486       .  S
C148        O153   1.266       .  A
C148        O151   1.264       .  A
C148        C283   1.483       .  S
Cd149       O156   2.460       .  S
Cd149       O155   2.462       .  S
Cd149       O154   2.437       .  S
Cd149       O150   2.504       .  S
Cd149       O153   2.477       .  S
Cd149       O151   2.471       .  S
C152        O156   1.265       .  A
C152        C343   1.482       .  S
O157        C160   1.268       .  A
O157       Cd162   2.473       .  S
C158        O167   1.263       .  A
C158        O163   1.268       .  A
C158        C320   1.486       .  S
O159        C165   1.267       .  A
O159       Cd162   2.470   1_545  S
C160        O168   1.265       .  A
C160        C220   1.487       .  S
C161        O166   1.266       .  A
C161        O164   1.266       .  A
C161        C230   1.480       .  S
Cd162       O169   2.452   1_565  S
Cd162       O168   2.453       .  S
Cd162       O167   2.436   1_565  S
Cd162       O163   2.496   1_565  S
Cd162       O166   2.462       .  S
Cd162       O164   2.462       .  S
C165        O169   1.264       .  A
C165        C463   1.485       .  S
O170        C173   1.268       .  A
O170       Cd175   2.447       .  S
C171        O180   1.263       .  A
C171        O176   1.268       .  A
C171        C300   1.481       .  S
O172        C706   1.268   1_554  A
O172       Cd703   2.466   1_544  S
C173        O181   1.266       .  A
C173        C210   1.478       .  S
C174        O179   1.267       .  A
C174        O705   1.265   1_554  A
C174        C240   1.478       .  S
Cd175       O182   2.432   1_565  S
Cd175       O181   2.425       .  S
Cd175       O180   2.414   1_565  S
Cd175       O176   2.476   1_565  S
Cd175       O177   2.438       .  S
Cd175       O700   2.466   1_565  S
Cd175       O707   2.455       .  S
O177        C702   1.265       .  A
C178        O182   1.264       .  A
C178        O700   1.268       .  A
C178        C500   1.482       .  S
O179       Cd703   2.455   1_554  S
O183        C186   1.265       .  A
O183       Cd188   2.451   1_655  S
C184        O193   1.266       .  A
C184        O189   1.267       .  A
C184        C223   1.484       .  S
O185        C191   1.269       .  A
O185       Cd716   2.479       .  S
C186        O194   1.268       .  A
C186        C430   1.483       .  S
C187        O190   1.263       .  A
C187        O720   1.270   1_554  A
C187        C333   1.486   1_554  S
Cd188       O195   2.443       .  S
Cd188       O194   2.445   1_455  S
Cd188       O193   2.446       .  S
Cd188       O189   2.470       .  S
Cd188       O190   2.429   1_455  S
Cd188       O713   2.479   1_554  S
Cd188       O720   2.493   1_454  S
C191        O723   1.265       .  A
C191        C253   1.487       .  S
O192        C715   1.270       .  A
O192       Cd716   2.493   1_655  S
O195        C719   1.265   1_554  A
O196        C199   1.266       .  A
O196       Cd201   2.455       .  S
C197        O206   1.264       .  A
C197        O202   1.267       .  A
C197        C403   1.483       .  S
O198        C204   1.266       .  A
O198       Cd201   2.468   1_655  S
C199        O207   1.264       .  A
C199        C213   1.475       .  S
C200        O205   1.268       .  A
C200        O203   1.266       .  A
C200        C273   1.484       .  S
Cd201       O208   2.441   1_455  S
Cd201       O207   2.436       .  S
Cd201       O206   2.450   1_455  S
Cd201       O202   2.459   1_455  S
Cd201       O205   2.447       .  S
Cd201       O203   2.449       .  S
C204        O208   1.263       .  A
C204        C360   1.479       .  S
C209        C210   1.407       .  A
C209        C214   1.396       .  A
C209        F216   1.357       .  S
C210        C211   1.409       .  A
C211        C212   1.395       .  A
C211        F218   1.358       .  S
C212        C213   1.406       .  A
C212        F217   1.358       .  S
C213        C214   1.406       .  A
C214        F215   1.358       .  S
C219        C220   1.408       .  A
C219        C224   1.398       .  A
C219        F226   1.354       .  S
C220        C221   1.410       .  A
C221        C222   1.400       .  A
C221        F228   1.358       .  S
C222        C223   1.408       .  A
C222        F227   1.358       .  S
C223        C224   1.407       .  A
C224        F225   1.358       .  S
C229        C230   1.406       .  A
C229        C234   1.398       .  A
C229        F236   1.358       .  S
C230        C231   1.407       .  A
C231        C232   1.400       .  A
C231        F238   1.358       .  S
C232        C233   1.410       .  A
C232        F237   1.358       .  S
C233        C234   1.408       .  A
C234        F235   1.355       .  S
C239        C240   1.407       .  A
C239        C244   1.397       .  A
C239        F246   1.358       .  S
C240        C241   1.407       .  A
C241        C242   1.396       .  A
C241        F776   1.359       .  S
C242        C243   1.408       .  A
C242        F247   1.355       .  S
C243        C244   1.409       .  A
C244        F245   1.358       .  S
F248        C769   1.359       .  S
C249        C250   1.407       .  A
C249        C254   1.398       .  A
C249        F256   1.358       .  S
C250        C251   1.407       .  A
C251        C252   1.399       .  A
C251        F258   1.358       .  S
C252        C253   1.411       .  A
C252        F785   1.358       .  S
C253        C254   1.407       .  A
C254        F255   1.353       .  S
F257        C780   1.358       .  S
C259        C260   1.408       .  A
C259        C264   1.401       .  A
C259        F266   1.358       .  S
C260        C261   1.409       .  A
C261        C262   1.397       .  A
C261        F268   1.358       .  S
C262        C263   1.408       .  A
C262        F267   1.356       .  S
C263        C264   1.411       .  A
C264        F265   1.358       .  S
C269        C270   1.407       .  A
C269        C274   1.397       .  A
C269        F276   1.358       .  S
C270        C271   1.407       .  A
C271        C272   1.398       .  A
C271        F278   1.358       .  S
C272        C273   1.409       .  A
C272        F277   1.358       .  S
C273        C274   1.408       .  A
C274        F275   1.355       .  S
C279        C284   1.401       .  A
C279        C808   1.409       .  A
C279        F286   1.357       .  S
C280        C281   1.410       .  A
C280        C807   1.409       .  A
C281        C282   1.399       .  A
C281        F288   1.358       .  S
C282        C811   1.407   1_554  A
C282        F287   1.358       .  S
C283        C284   1.408       .  A
C283        C810   1.407       .  A
C284        F285   1.358       .  S
C289        C290   1.411       .  A
C289        C294   1.400       .  A
C289        F296   1.358       .  S
C290        C291   1.406       .  A
C291        C292   1.397       .  A
C291        F298   1.358       .  S
C292        C293   1.409       .  A
C292        F297   1.358       .  S
C293        C294   1.408       .  A
C294        F295   1.358       .  S
C299        C300   1.408       .  A
C299        C304   1.399       .  A
C299        F306   1.358       .  S
C300        C301   1.410       .  A
C301        C302   1.395       .  A
C301        F308   1.358       .  S
C302        C303   1.405       .  A
C302        F307   1.358       .  S
C303        C304   1.409       .  A
C304        F305   1.358       .  S
C309        C310   1.407       .  A
C309        C314   1.401       .  A
C309        F316   1.358       .  S
C310        C311   1.410       .  A
C311        C312   1.400       .  A
C311        F318   1.358       .  S
C312        C313   1.409       .  A
C312        F317   1.358       .  S
C313        C314   1.411       .  A
C314        F315   1.358       .  S
C319        C320   1.408       .  A
C319        C324   1.400       .  A
C319        F326   1.358       .  S
C320        C321   1.411       .  A
C321        C322   1.399       .  A
C321        F328   1.358       .  S
C322        C323   1.406       .  A
C322        F327   1.358       .  S
C323        C324   1.410       .  A
C324        F325   1.358       .  S
C329        C330   1.410       .  A
C329        C334   1.401       .  A
C329        F336   1.358       .  S
C330        C859   1.407       .  A
C331        C332   1.399       .  A
C331        C858   1.407   1_554  A
C331        F338   1.358       .  S
C332        C333   1.411   1_554  A
C332        F337   1.358       .  S
C333        C862   1.407       .  A
C334        C861   1.407       .  A
C334        F335   1.358       .  S
C339        C340   1.410       .  A
C339        C344   1.397       .  A
C339        F346   1.358       .  S
C340        C341   1.409       .  A
C341        C342   1.402       .  A
C341        F348   1.358       .  S
C342        C343   1.409       .  A
C342        F347   1.358       .  S
C343        C344   1.405       .  A
C344        F345   1.358       .  S
C349        C350   1.407       .  A
C349        C354   1.400       .  A
C349        F884   1.358       .  S
C350        C351   1.408       .  A
C351        C352   1.401       .  A
C351        F358   1.358       .  S
C352        C353   1.411       .  A
C352        F357   1.358       .  S
C353        C354   1.409       .  A
C354        F355   1.356       .  S
F356        C877   1.358       .  S
C359        C360   1.405       .  A
C359        C364   1.397       .  A
C359        F366   1.358       .  S
C360        C361   1.408       .  A
C361        C362   1.398       .  A
C361        F368   1.358       .  S
C362        C363   1.408       .  A
C362        F367   1.358       .  S
C363        C364   1.411       .  A
C364        F365   1.358       .  S
C369        C370   1.407       .  A
C369        C374   1.400       .  A
C369        F376   1.358       .  S
C370        C371   1.411       .  A
C371        C372   1.401       .  A
C371        F378   1.358       .  S
C372        C373   1.407       .  A
C372        F377   1.358       .  S
C373        C374   1.410       .  A
C374        F375   1.358       .  S
C379        C380   1.408       .  A
C379        C384   1.398       .  A
C379        F386   1.358       .  S
C380        C381   1.407       .  A
C381        C382   1.400       .  A
C381        F388   1.357       .  S
C382        C383   1.408       .  A
C382        F387   1.358       .  S
C383        C384   1.407       .  A
C384        F385   1.358       .  S
C389        C390   1.410       .  A
C389        C394   1.403       .  A
C389        F396   1.358       .  S
C390        C391   1.405       .  A
C391        C392   1.397       .  A
C391        F398   1.358       .  S
C392        C393   1.411       .  A
C392        F397   1.358       .  S
C393        C394   1.409       .  A
C394        F395   1.358       .  S
C399        C400   1.410       .  A
C399        C404   1.397       .  A
C399        F406   1.358       .  S
C400        C401   1.407       .  A
C401        C402   1.400       .  A
C401        F408   1.358       .  S
C402        C403   1.410       .  A
C402        F407   1.358       .  S
C403        C404   1.407       .  A
C404        F405   1.358       .  S
C409        C410   1.407       .  A
C409        C414   1.400       .  A
C409        F416   1.358       .  S
C410        C411   1.407       .  A
C411        C412   1.399       .  A
C411        F418   1.358       .  S
C412        C413   1.410       .  A
C412        F417   1.358       .  S
C413        C414   1.409       .  A
C414        F415   1.357       .  S
C419        C420   1.408       .  A
C419        C424   1.397       .  A
C419        F426   1.358       .  S
C420        C421   1.411       .  A
C421        C422   1.398       .  A
C421        F428   1.358       .  S
C422        C423   1.405       .  A
C422        F427   1.358       .  S
C423        C424   1.407       .  A
C424        F425   1.358       .  S
C429        C430   1.411       .  A
C429        C434   1.401       .  A
C429        F436   1.358   1_554  S
C430        C431   1.407       .  A
C431        C432   1.394       .  A
C431        F438   1.358       .  S
C432        C433   1.408       .  A
C432        F437   1.358       .  S
C433        C434   1.407       .  A
C434        F435   1.358   1_554  S
C439        C444   1.395       .  A
C439        C968   1.407       .  A
C439        F446   1.354       .  S
C440        C441   1.411       .  A
C440        C967   1.407   1_554  A
C441        C442   1.398       .  A
C441        F448   1.358       .  S
C442        C971   1.405   1_554  A
C442        F447   1.358       .  S
C443        C444   1.406       .  A
C443        C970   1.405       .  A
C444        F445   1.358       .  S
C449        C450   1.410       .  A
C449        C454   1.399       .  A
C449        F456   1.358       .  S
C450        C451   1.408       .  A
C451        C452   1.402       .  A
C451        F458   1.358       .  S
C452        C453   1.412       .  A
C452        F457   1.358       .  S
C453        C454   1.407       .  A
C454        F455   1.358       .  S
C459        C460   1.406       .  A
C459        C464   1.399       .  A
C459        F466   1.358       .  S
C460        C461   1.409       .  A
C461        C462   1.398       .  A
C461        F468   1.358       .  S
C462        C463   1.408       .  A
C462        F467   1.358       .  S
C463        C464   1.411       .  A
C464        F465   1.358       .  S
C469        C470   1.410       .  A
C469        C474   1.400       .  A
C469        F476   1.357       .  S
C470        C471   1.410       .  A
C471        C472   1.399       .  A
C471        F478   1.358       .  S
C472        C473   1.408       .  A
C472        F477   1.358       .  S
C473        C474   1.409       .  A
C474        F475   1.358       .  S
C479        C480   1.409       .  A
C479        C484   1.398       .  A
C479        F486   1.358       .  S
C480        C481   1.408       .  A
C481        C482   1.400       .  A
C481        F488   1.356       .  S
C482        C483   1.409       .  A
C482        F487   1.358       .  S
C483        C484   1.408       .  A
C484        F485   1.358       .  S
C489        C490   1.410       .  A
C489        C494   1.399       .  A
C489        F496   1.358       .  S
C490        C491   1.408       .  A
C491        C492   1.401       .  A
C491        F498   1.358       .  S
C492        C493   1.411       .  A
C492        F497   1.358   1_554  S
C493        C494   1.408       .  A
C494        F495   1.358       .  S
C499        C500   1.410       .  A
C499        C504   1.398       .  A
C499        F506   1.358       .  S
C500       C1029   1.407       .  A
C501        C502   1.398       .  A
C501       C1028   1.407   1_554  A
C501        F508   1.358       .  S
C502        C503   1.411       .  A
C502        F507   1.358       .  S
C503       C1032   1.406   1_554  A
C504       C1031   1.406       .  A
C504        F505   1.358       .  S
C509        C510   1.411       .  A
C509        C514   1.400       .  A
C509        F516   1.358       .  S
C510        C511   1.409       .  A
C511        C512   1.399       .  A
C511        F518   1.356       .  S
C512        C513   1.406       .  A
C512        F517   1.358       .  S
C513        C514   1.407       .  A
C514        F515   1.358       .  S
C519        C520   1.408       .  A
C519        C524   1.400       .  A
C519        F526   1.358       .  S
C520        C521   1.406       .  A
C521        C522   1.399       .  A
C521        F528   1.358       .  S
C522        C523   1.410       .  A
C522       F1055   1.358       .  S
C523        C524   1.407       .  A
C524        F525   1.356       .  S
F527       C1050   1.358   1_554  S
O529        C532   1.269       .  A
C530        O539   1.262       .  A
C530       C1031   1.483       .  S
O531        C537   1.267   1_655  A
O531       Cd534   2.470       .  S
C532       C1051   1.486       .  S
C533        O538   1.267       .  A
C533        O536   1.266       .  A
C533       C1041   1.480       .  S
Cd534       O541   2.465   1_655  S
Cd534       O540   2.442       .  S
Cd534       O539   2.432   1_655  S
Cd534       O538   2.464       .  S
Cd534       O536   2.455       .  S
C537        O541   1.265       .  A
C537       C1021   1.488       .  S
O542        C545   1.267       .  A
O542       Cd547   2.464       .  S
C543        O552   1.264       .  A
C543        O548   1.268   1_455  A
C543        C981   1.489       .  S
O544        C550   1.268   1_655  A
O544       Cd547   2.479       .  S
C545        O553   1.266       .  A
C545       C1001   1.486       .  S
C546        O551   1.268       .  A
C546        O549   1.265       .  A
C546       C1008   1.487       .  S
Cd547       O554   2.436   1_655  S
Cd547       O553   2.464       .  S
Cd547       O552   2.462   1_655  S
Cd547       O548   2.480       .  S
Cd547       O551   2.475       .  S
Cd547       O549   2.447       .  S
C550        O554   1.264       .  A
C550        C988   1.482       .  S
O555        C558   1.267       .  A
O555       Cd560   2.458       .  S
C556        O565   1.264       .  A
C556        O561   1.267       .  A
C556        C948   1.483       .  S
O557        C563   1.268       .  A
O557       Cd560   2.487       .  S
C558        O566   1.266       .  A
C558       C1011   1.486       .  S
C559        O564   1.268       .  A
C559        O562   1.264       .  A
C559        C968   1.482       .  S
Cd560       O567   2.419       .  S
Cd560       O566   2.463       .  S
Cd560       O565   2.446       .  S
Cd560       O561   2.463       .  S
Cd560       O564   2.466       .  S
Cd560       O562   2.433       .  S
C563        O567   1.264       .  A
C563        C961   1.481       .  S
O568        C571   1.268       .  A
O568       Cd573   2.481       .  S
C569        O578   1.265       .  A
C569        O574   1.267       .  A
C569        C918   1.484       .  S
O570        C576   1.267       .  A
O570       Cd573   2.493       .  S
C571        O579   1.264       .  A
C571       C1048   1.482       .  S
C572        O577   1.269       .  A
C572        O575   1.268       .  A
C572        C941   1.486       .  S
Cd573       O580   2.439       .  S
Cd573       O579   2.449       .  S
Cd573       O578   2.472       .  S
Cd573       O574   2.473       .  S
Cd573       O577   2.465       .  S
Cd573       O575   2.446       .  S
C576        O580   1.262       .  A
C576        C928   1.484       .  S
O581        C584   1.269       .  A
O581       Cd586   2.476       .  S
C582        O591   1.262       .  A
C582        O587   1.267       .  A
C582        C901   1.487       .  S
O583        C589   1.267       .  A
O583       Cd586   2.477   1_565  S
C584        O592   1.265       .  A
C584       C1038   1.487       .  S
C585        O590   1.267       .  A
C585        O588   1.268       .  A
C585        C911   1.482       .  S
Cd586       O593   2.445   1_545  S
Cd586       O592   2.453       .  S
Cd586       O591   2.454   1_545  S
Cd586       O587   2.501   1_545  S
Cd586       O590   2.457       .  S
Cd586       O588   2.460       .  S
C589        O593   1.263       .  A
C589        C891   1.484       .  S
O594        C597   1.267       .  A
O594       Cd599   2.470       .  S
C595        O604   1.263       .  A
C595        O600   1.267   1_565  A
C595        C868   1.485       .  S
C597        O605   1.267       .  A
C597        C998   1.488       .  S
C598        O603   1.266       .  A
C598        C878   1.485       .  S
Cd599       O606   2.455   1_545  S
Cd599       O605   2.462       .  S
Cd599       O604   2.437   1_545  S
Cd599       O600   2.494       .  S
Cd599       O601   2.463       .  S
C602        O606   1.264       .  A
C602        C858   1.486       .  S
O607        C610   1.266       .  A
O607       Cd612   2.479       .  S
C608        O617   1.264       .  A
C608        O613   1.268       .  A
C608        C851   1.484       .  S
O609        C615   1.268       .  A
O609       Cd612   2.496       .  S
C610        O618   1.265       .  A
C610        C938   1.482       .  S
C611        O616   1.268       .  A
C611        O614   1.266       .  A
C611        C881   1.491       .  S
Cd612       O619   2.455       .  S
Cd612       O618   2.466       .  S
Cd612       O617   2.450       .  S
Cd612       O613   2.480       .  S
Cd612       O616   2.478       .  S
Cd612       O614   2.466       .  S
C615        O619   1.263       .  A
C615        C838   1.487       .  S
O620        C623   1.268       .  A
O620       Cd625   2.467       .  S
C621        O630   1.263       .  A
C621        O626   1.268       .  A
C621        C818   1.484       .  S
O622        C628   1.268       .  A
O622       Cd625   2.456       .  S
C623        O631   1.266       .  A
C623        C908   1.482       .  S
C624        O629   1.268       .  A
C624        O627   1.264       .  A
C624        C971   1.475       .  S
Cd625       O632   2.441       .  S
Cd625       O631   2.449       .  S
Cd625       O630   2.450       .  S
Cd625       O626   2.467       .  S
Cd625       O629   2.469       .  S
Cd625       O627   2.422       .  S
C628        O632   1.265       .  A
C628        C831   1.479       .  S
O633        C636   1.267       .  A
O633       Cd638   2.464       .  S
C634        O643   1.265       .  A
C634        O639   1.267       .  A
C634        C841   1.489       .  S
O635        C641   1.267       .  A
O635       Cd638   2.487       .  S
C636        O644   1.265       .  A
C636        C798   1.480       .  S
C637        O642   1.267       .  A
C637        O640   1.265       .  A
C637        C808   1.487       .  S
Cd638       O645   2.455       .  S
Cd638       O644   2.450       .  S
Cd638       O643   2.463       .  S
Cd638       O639   2.483       .  S
Cd638       O642   2.475       .  S
Cd638       O640   2.459       .  S
C641        O645   1.263       .  A
C641       C1018   1.487       .  S
O646        C649   1.267       .  A
O646       Cd651   2.468       .  S
C647        O656   1.263       .  A
C647        O652   1.267       .  A
C647        C978   1.489       .  S
O648        C654   1.266       .  A
O648       Cd651   2.482       .  S
C649        O657   1.265       .  A
C649        C791   1.488       .  S
C650        O655   1.267       .  A
C650        O653   1.266       .  A
C650        C778   1.481       .  S
Cd651       O658   2.450       .  S
Cd651       O657   2.465       .  S
Cd651       O656   2.448       .  S
Cd651       O652   2.504       .  S
Cd651       O655   2.464       .  S
Cd651       O653   2.444       .  S
C654        O658   1.264       .  A
C654        C821   1.485       .  S
O659        C662   1.267       .  A
O659       Cd664   2.461       .  S
C660        O669   1.265       .  A
C660        O665   1.268       .  A
C660        C951   1.478       .  S
O661        C667   1.269       .  A
O661       Cd664   2.483       .  S
C662        O670   1.265       .  A
C662        C771   1.483       .  S
C663        O668   1.269       .  A
C663        O666   1.265       .  A
C663        C788   1.485       .  S
Cd664       O671   2.443       .  S
Cd664       O670   2.445       .  S
Cd664       O669   2.430       .  S
Cd664       O665   2.466       .  S
Cd664       O668   2.480       .  S
Cd664       O666   2.436       .  S
C667        O671   1.264       .  A
C667        C898   1.487       .  S
O672        C675   1.268       .  A
O672       Cd677   2.460       .  S
C673        O682   1.262       .  A
C673        O678   1.268       .  A
C673        C921   1.488       .  S
O674        C680   1.268       .  A
O674       Cd677   2.469       .  S
C675        O683   1.267       .  A
C675        C761   1.486       .  S
C676        O681   1.266       .  A
C676        O679   1.264       .  A
C676        C811   1.483       .  S
Cd677       O684   2.460       .  S
Cd677       O683   2.462       .  S
Cd677       O682   2.437       .  S
Cd677       O678   2.504       .  S
Cd677       O681   2.477       .  S
Cd677       O679   2.471       .  S
C680        O684   1.265       .  A
C680        C871   1.482       .  S
O685        C688   1.268       .  A
O685       Cd690   2.473       .  S
C686        O695   1.263       .  A
C686        O691   1.268       .  A
C686        C848   1.486       .  S
O687        C693   1.267       .  A
O687       Cd690   2.470   1_545  S
C688        O696   1.265       .  A
C688        C748   1.487       .  S
C689        O694   1.266       .  A
C689        O692   1.266       .  A
C689        C758   1.480       .  S
Cd690       O697   2.452   1_565  S
Cd690       O696   2.453       .  S
Cd690       O695   2.436   1_565  S
Cd690       O691   2.496   1_565  S
Cd690       O694   2.462       .  S
Cd690       O692   2.462       .  S
C693        O697   1.264       .  A
C693        C991   1.485       .  S
O698        C701   1.268       .  A
O698       Cd703   2.447       .  S
C699        O708   1.263       .  A
C699        O704   1.268       .  A
C699        C828   1.481       .  S
C701        O709   1.266       .  A
C701        C738   1.478       .  S
C702        O707   1.267       .  A
C702        C768   1.478       .  S
Cd703       O710   2.432   1_565  S
Cd703       O709   2.425       .  S
Cd703       O708   2.414   1_565  S
Cd703       O704   2.476   1_565  S
Cd703       O705   2.438       .  S
C706        O710   1.264       .  A
C706       C1028   1.482       .  S
O711        C714   1.265       .  A
O711       Cd716   2.451   1_655  S
C712        O721   1.266       .  A
C712        O717   1.267       .  A
C712        C751   1.484       .  S
O713        C719   1.269       .  A
C714        O722   1.268       .  A
C714        C958   1.483       .  S
C715        O718   1.263       .  A
C715        C861   1.486       .  S
Cd716       O723   2.443       .  S
Cd716       O722   2.445   1_455  S
Cd716       O721   2.446       .  S
Cd716       O717   2.470       .  S
Cd716       O718   2.429   1_455  S
C719        C781   1.487       .  S
O724        C727   1.266       .  A
O724       Cd729   2.455       .  S
C725        O734   1.264       .  A
C725        O730   1.267       .  A
C725        C931   1.483       .  S
O726        C732   1.266       .  A
O726       Cd729   2.468   1_655  S
C727        O735   1.264       .  A
C727        C741   1.475       .  S
C728        O733   1.268       .  A
C728        O731   1.266       .  A
C728        C801   1.484       .  S
Cd729       O736   2.441   1_455  S
Cd729       O735   2.436       .  S
Cd729       O734   2.450   1_455  S
Cd729       O730   2.459   1_455  S
Cd729       O733   2.447       .  S
Cd729       O731   2.449       .  S
C732        O736   1.263       .  A
C732        C888   1.479       .  S
C737        C738   1.407       .  A
C737        C742   1.396       .  A
C737        F744   1.357       .  S
C738        C739   1.409       .  A
C739        C740   1.395       .  A
C739        F746   1.358       .  S
C740        C741   1.406       .  A
C740        F745   1.358       .  S
C741        C742   1.406       .  A
C742        F743   1.358       .  S
C747        C748   1.408       .  A
C747        C752   1.398       .  A
C747        F754   1.354       .  S
C748        C749   1.410       .  A
C749        C750   1.400       .  A
C749        F756   1.358       .  S
C750        C751   1.408       .  A
C750        F755   1.358       .  S
C751        C752   1.407       .  A
C752        F753   1.358       .  S
C757        C758   1.406       .  A
C757        C762   1.398       .  A
C757        F764   1.358       .  S
C758        C759   1.407       .  A
C759        C760   1.400       .  A
C759        F766   1.358       .  S
C760        C761   1.410       .  A
C760        F765   1.358       .  S
C761        C762   1.408       .  A
C762        F763   1.355       .  S
C767        C768   1.407       .  A
C767        C772   1.397       .  A
C767        F774   1.358       .  S
C768        C769   1.407       .  A
C769        C770   1.396       .  A
C770        C771   1.408       .  A
C770        F775   1.355       .  S
C771        C772   1.409       .  A
C772        F773   1.358       .  S
C777        C778   1.407       .  A
C777        C782   1.398       .  A
C777        F784   1.358       .  S
C778        C779   1.407       .  A
C779        C780   1.399       .  A
C779        F786   1.358       .  S
C780        C781   1.411       .  A
C781        C782   1.407       .  A
C782        F783   1.353       .  S
C787        C788   1.408       .  A
C787        C792   1.401       .  A
C787        F794   1.358       .  S
C788        C789   1.409       .  A
C789        C790   1.397       .  A
C789        F796   1.358       .  S
C790        C791   1.408       .  A
C790        F795   1.356       .  S
C791        C792   1.411       .  A
C792        F793   1.358       .  S
C797        C798   1.407       .  A
C797        C802   1.397       .  A
C797        F804   1.358       .  S
C798        C799   1.407       .  A
C799        C800   1.398       .  A
C799        F806   1.358       .  S
C800        C801   1.409       .  A
C800        F805   1.358       .  S
C801        C802   1.408       .  A
C802        F803   1.355       .  S
C807        C812   1.401   1_554  A
C807        F814   1.357   1_554  S
C808        C809   1.410       .  A
C809        C810   1.399       .  A
C809        F816   1.358       .  S
C810        F815   1.358       .  S
C811        C812   1.408       .  A
C812        F813   1.358       .  S
C817        C818   1.411       .  A
C817        C822   1.400       .  A
C817        F824   1.358       .  S
C818        C819   1.406       .  A
C819        C820   1.397       .  A
C819        F826   1.358       .  S
C820        C821   1.409       .  A
C820        F825   1.358       .  S
C821        C822   1.408       .  A
C822        F823   1.358       .  S
C827        C828   1.408       .  A
C827        C832   1.399       .  A
C827        F834   1.358       .  S
C828        C829   1.410       .  A
C829        C830   1.395       .  A
C829        F836   1.358   1_556  S
C830        C831   1.405       .  A
C830        F835   1.358       .  S
C831        C832   1.409       .  A
C832        F833   1.358       .  S
C837        C838   1.407       .  A
C837        C842   1.401       .  A
C837        F844   1.358       .  S
C838        C839   1.410       .  A
C839        C840   1.400       .  A
C839        F846   1.358       .  S
C840        C841   1.409       .  A
C840        F845   1.358       .  S
C841        C842   1.411       .  A
C842        F843   1.358       .  S
C847        C848   1.408       .  A
C847        C852   1.400       .  A
C847        F854   1.358       .  S
C848        C849   1.411       .  A
C849        C850   1.399       .  A
C849        F856   1.358       .  S
C850        C851   1.406       .  A
C850        F855   1.358       .  S
C851        C852   1.410       .  A
C852        F853   1.358       .  S
C857        C858   1.410       .  A
C857        C862   1.401       .  A
C857        F864   1.358       .  S
C859        C860   1.399       .  A
C859        F866   1.358       .  S
C860        C861   1.411       .  A
C860        F865   1.358       .  S
C862        F863   1.358       .  S
C867        C868   1.410       .  A
C867        C872   1.397       .  A
C867        F874   1.358   1_556  S
C868        C869   1.409       .  A
C869        C870   1.402       .  A
C869        F876   1.358       .  S
C870        C871   1.409       .  A
C870        F875   1.358       .  S
C871        C872   1.405       .  A
C872        F873   1.358       .  S
C877        C878   1.407       .  A
C877        C882   1.400       .  A
C878        C879   1.408       .  A
C879        C880   1.401       .  A
C879        F886   1.358       .  S
C880        C881   1.411       .  A
C880        F885   1.358       .  S
C881        C882   1.409       .  A
C882        F883   1.356       .  S
C887        C888   1.405       .  A
C887        C892   1.397       .  A
C887        F894   1.358       .  S
C888        C889   1.408       .  A
C889        C890   1.398       .  A
C889        F896   1.358       .  S
C890        C891   1.408       .  A
C890        F895   1.358       .  S
C891        C892   1.411       .  A
C892        F893   1.358       .  S
C897        C898   1.407       .  A
C897        C902   1.400       .  A
C897        F904   1.358       .  S
C898        C899   1.411       .  A
C899        C900   1.401       .  A
C899        F906   1.358       .  S
C900        C901   1.407       .  A
C900        F905   1.358       .  S
C901        C902   1.410       .  A
C902        F903   1.358       .  S
C907        C908   1.408       .  A
C907        C912   1.398       .  A
C907        F914   1.358       .  S
C908        C909   1.407       .  A
C909        C910   1.400       .  A
C909        F916   1.357       .  S
C910        C911   1.408       .  A
C910        F915   1.358       .  S
C911        C912   1.407       .  A
C912        F913   1.358       .  S
C917        C918   1.410       .  A
C917        C922   1.403       .  A
C917        F924   1.358       .  S
C918        C919   1.405       .  A
C919        C920   1.397       .  A
C919        F926   1.358       .  S
C920        C921   1.411       .  A
C920        F925   1.358       .  S
C921        C922   1.409       .  A
C922        F923   1.358       .  S
C927        C928   1.410       .  A
C927        C932   1.397       .  A
C927        F934   1.358       .  S
C928        C929   1.407       .  A
C929        C930   1.400       .  A
C929        F936   1.358       .  S
C930        C931   1.410       .  A
C930        F935   1.358       .  S
C931        C932   1.407       .  A
C932        F933   1.358       .  S
C937        C938   1.407       .  A
C937        C942   1.400       .  A
C937        F944   1.358       .  S
C938        C939   1.407       .  A
C939        C940   1.399       .  A
C939        F946   1.358       .  S
C940        C941   1.410       .  A
C940        F945   1.358       .  S
C941        C942   1.409       .  A
C942        F943   1.357       .  S
C947        C948   1.408       .  A
C947        C952   1.397       .  A
C947        F954   1.358       .  S
C948        C949   1.411       .  A
C949        C950   1.398       .  A
C949        F956   1.358       .  S
C950        C951   1.405       .  A
C950        F955   1.358       .  S
C951        C952   1.407       .  A
C952        F953   1.358       .  S
C957        C958   1.411       .  A
C957        C962   1.401       .  A
C957        F964   1.358       .  S
C958        C959   1.407       .  A
C959        C960   1.394       .  A
C959        F966   1.358       .  S
C960        C961   1.408       .  A
C960        F965   1.358       .  S
C961        C962   1.407       .  A
C962        F963   1.358       .  S
C967        C972   1.395       .  A
C967        F974   1.354       .  S
C968        C969   1.411       .  A
C969        C970   1.398       .  A
C969        F976   1.358       .  S
C970        F975   1.358       .  S
C971        C972   1.406       .  A
C972        F973   1.358       .  S
C977        C978   1.410       .  A
C977        C982   1.399       .  A
C977        F984   1.358       .  S
C978        C979   1.408       .  A
C979        C980   1.402       .  A
C979        F986   1.358       .  S
C980        C981   1.412       .  A
C980        F985   1.358       .  S
C981        C982   1.407       .  A
C982        F983   1.358       .  S
C987        C988   1.406       .  A
C987        C992   1.399       .  A
C987        F994   1.358       .  S
C988        C989   1.409       .  A
C989        C990   1.398       .  A
C989        F996   1.358       .  S
C990        C991   1.408       .  A
C990        F995   1.358       .  S
C991        C992   1.411       .  A
C992        F993   1.358       .  S
C997        C998   1.410       .  A
C997       C1002   1.400       .  A
C997       F1004   1.357       .  S
C998        C999   1.410       .  A
C999       C1000   1.399       .  A
C999       F1006   1.358       .  S
C1000      C1001   1.408       .  A
C1000      F1005   1.358       .  S
C1001      C1002   1.409       .  A
C1002      F1003   1.358       .  S
C1007      C1008   1.409       .  A
C1007      C1012   1.398       .  A
C1007      F1014   1.358       .  S
C1008      C1009   1.408       .  A
C1009      C1010   1.400       .  A
C1009      F1016   1.356       .  S
C1010      C1011   1.409       .  A
C1010      F1015   1.358       .  S
C1011      C1012   1.408       .  A
C1012      F1013   1.358       .  S
C1017      C1018   1.410       .  A
C1017      C1022   1.399       .  A
C1017      F1024   1.358       .  S
C1018      C1019   1.408       .  A
C1019      C1020   1.401       .  A
C1019      F1026   1.358       .  S
C1020      C1021   1.411       .  A
C1020      F1025   1.358       .  S
C1021      C1022   1.408       .  A
C1022      F1023   1.358       .  S
C1027      C1028   1.410       .  A
C1027      C1032   1.398       .  A
C1027      F1034   1.358       .  S
C1029      C1030   1.398       .  A
C1029      F1036   1.358       .  S
C1030      C1031   1.411       .  A
C1030      F1035   1.358       .  S
C1032      F1033   1.358       .  S
C1037      C1038   1.411       .  A
C1037      C1042   1.400       .  A
C1037      F1044   1.358       .  S
C1038      C1039   1.409       .  A
C1039      C1040   1.399       .  A
C1039      F1046   1.356       .  S
C1040      C1041   1.406       .  A
C1040      F1045   1.358       .  S
C1041      C1042   1.407       .  A
C1042      F1043   1.358       .  S
C1047      C1048   1.408       .  A
C1047      C1052   1.400       .  A
C1047      F1054   1.358       .  S
C1048      C1049   1.406       .  A
C1049      C1050   1.399       .  A
C1049      F1056   1.358       .  S
C1050      C1051   1.410       .  A
C1051      C1052   1.407       .  A
C1052      F1053   1.356       .  S
